xflr5 v6.48
 Calculated polar for: EPPLER 387
 1 1 Reynolds number fixed          Mach number fixed         
 xtrf =   1.000 (top)        1.000 (bottom)
 Mach =   0.044     Re =     0.129 e 6     Ncrit =   9.000

  alpha     CL        CD       CDp       Cm    TopXtr BotXtr   Cpmin    Chinge    XCp    
  -9.980  -0.3581   0.11969   0.11510  -0.0176  1.0000  0.0487  -1.1802   0.0000   0.1949
  -9.960  -0.3576   0.11945   0.11486  -0.0177  1.0000  0.0488  -1.1805   0.0000   0.1945
  -9.940  -0.3572   0.11921   0.11463  -0.0179  1.0000  0.0489  -1.1808   0.0000   0.1941
  -9.920  -0.3567   0.11898   0.11439  -0.0180  1.0000  0.0491  -1.1812   0.0000   0.1937
  -9.900  -0.3562   0.11874   0.11416  -0.0181  1.0000  0.0492  -1.1816   0.0000   0.1933
  -9.880  -0.3558   0.11850   0.11392  -0.0182  1.0000  0.0493  -1.1820   0.0000   0.1930
  -9.860  -0.3553   0.11827   0.11369  -0.0183  1.0000  0.0494  -1.1824   0.0000   0.1926
  -9.840  -0.3548   0.11803   0.11346  -0.0184  1.0000  0.0495  -1.1829   0.0000   0.1922
  -9.820  -0.3544   0.11780   0.11322  -0.0186  1.0000  0.0497  -1.1834   0.0000   0.1918
  -9.800  -0.3539   0.11756   0.11299  -0.0187  1.0000  0.0498  -1.1839   0.0000   0.1914
  -9.780  -0.3535   0.11733   0.11276  -0.0188  1.0000  0.0499  -1.1844   0.0000   0.1910
  -9.760  -0.3530   0.11709   0.11253  -0.0189  1.0000  0.0500  -1.1850   0.0000   0.1906
  -9.740  -0.3526   0.11686   0.11230  -0.0190  1.0000  0.0502  -1.1856   0.0000   0.1902
  -9.720  -0.3521   0.11663   0.11207  -0.0192  1.0000  0.0503  -1.1863   0.0000   0.1898
  -9.700  -0.3517   0.11640   0.11184  -0.0193  1.0000  0.0504  -1.1870   0.0000   0.1894
  -9.680  -0.3513   0.11617   0.11161  -0.0194  1.0000  0.0506  -1.1877   0.0000   0.1889
  -9.660  -0.3508   0.11594   0.11138  -0.0195  1.0000  0.0507  -1.1884   0.0000   0.1885
  -9.640  -0.3504   0.11571   0.11116  -0.0197  1.0000  0.0508  -1.1893   0.0000   0.1881
  -9.620  -0.3500   0.11548   0.11093  -0.0198  1.0000  0.0509  -1.1901   0.0000   0.1877
  -9.600  -0.3495   0.11526   0.11071  -0.0199  1.0000  0.0511  -1.1910   0.0000   0.1872
  -9.580  -0.3491   0.11503   0.11049  -0.0201  1.0000  0.0512  -1.1919   0.0000   0.1868
  -9.560  -0.3487   0.11481   0.11027  -0.0202  1.0000  0.0513  -1.1929   0.0000   0.1864
  -9.540  -0.3483   0.11458   0.11004  -0.0203  1.0000  0.0515  -1.1939   0.0000   0.1859
  -9.520  -0.3479   0.11436   0.10983  -0.0205  1.0000  0.0516  -1.1950   0.0000   0.1855
  -9.500  -0.3475   0.11414   0.10961  -0.0206  1.0000  0.0517  -1.1961   0.0000   0.1850
  -9.480  -0.3470   0.11392   0.10939  -0.0208  1.0000  0.0519  -1.1973   0.0000   0.1845
  -9.460  -0.3466   0.11371   0.10918  -0.0209  1.0000  0.0520  -1.1985   0.0000   0.1841
  -9.440  -0.3463   0.11349   0.10897  -0.0210  1.0000  0.0521  -1.1998   0.0000   0.1836
  -9.420  -0.3459   0.11328   0.10876  -0.0212  1.0000  0.0523  -1.2012   0.0000   0.1831
  -9.400  -0.3455   0.11307   0.10855  -0.0213  1.0000  0.0524  -1.2026   0.0000   0.1826
  -9.380  -0.3451   0.11286   0.10835  -0.0215  1.0000  0.0525  -1.2042   0.0000   0.1821
  -9.360  -0.3447   0.11266   0.10814  -0.0216  1.0000  0.0527  -1.2057   0.0000   0.1816
  -9.340  -0.3444   0.11245   0.10794  -0.0218  1.0000  0.0528  -1.2074   0.0000   0.1811
  -9.320  -0.3440   0.11225   0.10775  -0.0220  1.0000  0.0529  -1.2091   0.0000   0.1806
  -9.300  -0.3437   0.11206   0.10755  -0.0221  1.0000  0.0531  -1.2109   0.0000   0.1801
  -9.280  -0.3433   0.11186   0.10736  -0.0223  1.0000  0.0532  -1.2128   0.0000   0.1796
  -9.260  -0.3430   0.11167   0.10718  -0.0224  1.0000  0.0533  -1.2149   0.0000   0.1790
  -9.240  -0.3427   0.11149   0.10699  -0.0226  1.0000  0.0535  -1.2170   0.0000   0.1785
  -9.220  -0.3424   0.11131   0.10682  -0.0228  1.0000  0.0536  -1.2192   0.0000   0.1779
  -9.200  -0.3421   0.11113   0.10664  -0.0230  1.0000  0.0537  -1.2215   0.0000   0.1773
  -9.180  -0.3418   0.11096   0.10647  -0.0232  1.0000  0.0539  -1.2239   0.0000   0.1768
  -9.160  -0.3416   0.11079   0.10631  -0.0233  1.0000  0.0540  -1.2264   0.0000   0.1762
  -9.140  -0.3413   0.11063   0.10615  -0.0235  1.0000  0.0541  -1.2291   0.0000   0.1756
  -9.120  -0.3411   0.11047   0.10600  -0.0237  1.0000  0.0543  -1.2318   0.0000   0.1750
  -9.100  -0.3408   0.11032   0.10585  -0.0239  1.0000  0.0544  -1.2347   0.0000   0.1744
  -9.080  -0.3406   0.11017   0.10571  -0.0241  1.0000  0.0545  -1.2377   0.0000   0.1737
  -9.060  -0.3404   0.11003   0.10557  -0.0244  1.0000  0.0547  -1.2408   0.0000   0.1731
  -9.040  -0.3402   0.10990   0.10544  -0.0246  1.0000  0.0548  -1.2440   0.0000   0.1724
  -9.020  -0.3400   0.10977   0.10531  -0.0248  1.0000  0.0549  -1.2473   0.0000   0.1718
  -9.000  -0.3399   0.10964   0.10520  -0.0250  1.0000  0.0550  -1.2506   0.0000   0.1711
  -8.980  -0.3397   0.10953   0.10508  -0.0252  1.0000  0.0552  -1.2541   0.0000   0.1704
  -8.960  -0.3396   0.10941   0.10497  -0.0255  1.0000  0.0553  -1.2577   0.0000   0.1697
  -8.940  -0.3394   0.10931   0.10487  -0.0257  1.0000  0.0554  -1.2613   0.0000   0.1690
  -8.920  -0.3393   0.10920   0.10477  -0.0259  1.0000  0.0555  -1.2649   0.0000   0.1683
  -8.900  -0.3391   0.10910   0.10467  -0.0262  1.0000  0.0556  -1.2685   0.0000   0.1676
  -8.880  -0.3390   0.10900   0.10458  -0.0264  1.0000  0.0557  -1.2722   0.0000   0.1669
  -8.860  -0.3389   0.10891   0.10449  -0.0267  1.0000  0.0558  -1.2759   0.0000   0.1662
  -8.840  -0.3388   0.10882   0.10441  -0.0269  1.0000  0.0559  -1.2796   0.0000   0.1655
  -8.820  -0.3387   0.10873   0.10432  -0.0271  1.0000  0.0560  -1.2834   0.0000   0.1648
  -8.800  -0.3385   0.10864   0.10424  -0.0274  1.0000  0.0561  -1.2868   0.0000   0.1640
  -8.780  -0.3383   0.10855   0.10415  -0.0276  1.0000  0.0562  -1.2901   0.0000   0.1633
  -8.760  -0.3381   0.10845   0.10406  -0.0279  1.0000  0.0563  -1.2934   0.0000   0.1626
  -8.740  -0.3379   0.10836   0.10397  -0.0281  1.0000  0.0564  -1.2966   0.0000   0.1618
  -8.720  -0.3377   0.10826   0.10388  -0.0283  1.0000  0.0565  -1.2999   0.0000   0.1611
  -8.700  -0.3375   0.10816   0.10378  -0.0286  1.0000  0.0565  -1.3030   0.0000   0.1604
  -8.680  -0.3373   0.10806   0.10369  -0.0288  1.0000  0.0566  -1.3062   0.0000   0.1596
  -8.660  -0.3371   0.10795   0.10359  -0.0290  1.0000  0.0567  -1.3093   0.0000   0.1589
  -8.640  -0.3370   0.10785   0.10348  -0.0293  1.0000  0.0567  -1.3124   0.0000   0.1582
  -8.620  -0.3368   0.10773   0.10338  -0.0295  1.0000  0.0568  -1.3154   0.0000   0.1576
  -8.600  -0.3367   0.10762   0.10327  -0.0297  1.0000  0.0569  -1.3185   0.0000   0.1569
  -8.580  -0.3365   0.10750   0.10315  -0.0299  1.0000  0.0569  -1.3214   0.0000   0.1562
  -8.560  -0.3364   0.10738   0.10304  -0.0301  1.0000  0.0570  -1.3244   0.0000   0.1555
  -8.540  -0.3361   0.10725   0.10291  -0.0303  1.0000  0.0570  -1.3267   0.0000   0.1549
  -8.520  -0.3358   0.10711   0.10278  -0.0305  1.0000  0.0571  -1.3284   0.0000   0.1543
  -8.500  -0.3355   0.10697   0.10265  -0.0307  1.0000  0.0571  -1.3300   0.0000   0.1537
  -8.480  -0.3351   0.10683   0.10251  -0.0309  1.0000  0.0571  -1.3316   0.0000   0.1531
  -8.460  -0.3348   0.10668   0.10236  -0.0310  1.0000  0.0572  -1.3333   0.0000   0.1525
  -8.440  -0.3345   0.10653   0.10222  -0.0312  1.0000  0.0572  -1.3349   0.0000   0.1519
  -8.420  -0.3342   0.10638   0.10207  -0.0314  1.0000  0.0573  -1.3365   0.0000   0.1514
  -8.400  -0.3339   0.10622   0.10192  -0.0316  1.0000  0.0573  -1.3381   0.0000   0.1508
  -8.380  -0.3336   0.10606   0.10176  -0.0317  1.0000  0.0573  -1.3398   0.0000   0.1502
  -8.360  -0.3333   0.10590   0.10160  -0.0319  1.0000  0.0574  -1.3414   0.0000   0.1497
  -8.340  -0.3330   0.10573   0.10144  -0.0320  1.0000  0.0574  -1.3430   0.0000   0.1491
  -8.320  -0.3327   0.10556   0.10128  -0.0322  1.0000  0.0574  -1.3446   0.0000   0.1486
  -8.300  -0.3324   0.10539   0.10111  -0.0324  1.0000  0.0574  -1.3462   0.0000   0.1480
  -8.280  -0.3322   0.10522   0.10094  -0.0325  1.0000  0.0575  -1.3479   0.0000   0.1475
  -8.260  -0.3319   0.10504   0.10077  -0.0327  1.0000  0.0575  -1.3495   0.0000   0.1470
  -8.240  -0.3317   0.10486   0.10060  -0.0328  1.0000  0.0575  -1.3512   0.0000   0.1464
  -8.220  -0.3314   0.10468   0.10042  -0.0330  1.0000  0.0575  -1.3528   0.0000   0.1459
  -8.200  -0.3312   0.10450   0.10025  -0.0332  1.0000  0.0576  -1.3545   0.0000   0.1454
  -8.180  -0.3310   0.10432   0.10007  -0.0333  1.0000  0.0576  -1.3562   0.0000   0.1449
  -8.160  -0.3307   0.10414   0.09989  -0.0335  1.0000  0.0576  -1.3579   0.0000   0.1444
  -8.140  -0.3305   0.10395   0.09971  -0.0336  1.0000  0.0576  -1.3596   0.0000   0.1439
  -8.120  -0.3303   0.10376   0.09953  -0.0338  1.0000  0.0576  -1.3613   0.0000   0.1434
  -8.100  -0.3302   0.10358   0.09935  -0.0339  1.0000  0.0577  -1.3630   0.0000   0.1429
  -8.080  -0.3300   0.10339   0.09917  -0.0340  1.0000  0.0577  -1.3647   0.0000   0.1424
  -8.060  -0.3298   0.10320   0.09898  -0.0342  1.0000  0.0577  -1.3665   0.0000   0.1420
  -8.040  -0.3297   0.10301   0.09880  -0.0343  1.0000  0.0577  -1.3683   0.0000   0.1415
  -8.020  -0.3295   0.10282   0.09862  -0.0345  1.0000  0.0577  -1.3700   0.0000   0.1411
  -8.000  -0.3294   0.10263   0.09843  -0.0346  1.0000  0.0577  -1.3718   0.0000   0.1406
  -7.980  -0.3293   0.10244   0.09825  -0.0347  1.0000  0.0577  -1.3737   0.0000   0.1402
  -7.960  -0.3292   0.10225   0.09806  -0.0349  1.0000  0.0578  -1.3755   0.0000   0.1397
  -7.940  -0.3291   0.10205   0.09787  -0.0350  1.0000  0.0578  -1.3773   0.0000   0.1393
  -7.920  -0.3290   0.10186   0.09769  -0.0351  1.0000  0.0578  -1.3792   0.0000   0.1389
  -7.900  -0.3289   0.10167   0.09750  -0.0353  1.0000  0.0578  -1.3811   0.0000   0.1385
  -7.880  -0.3288   0.10147   0.09731  -0.0354  1.0000  0.0578  -1.3830   0.0000   0.1381
  -7.860  -0.3288   0.10128   0.09712  -0.0355  1.0000  0.0578  -1.3849   0.0000   0.1377
  -7.840  -0.3287   0.10108   0.09693  -0.0357  1.0000  0.0578  -1.3869   0.0000   0.1373
  -7.820  -0.3286   0.10088   0.09674  -0.0358  1.0000  0.0578  -1.3888   0.0000   0.1368
  -7.800  -0.3286   0.10068   0.09655  -0.0360  1.0000  0.0579  -1.3908   0.0000   0.1364
  -7.780  -0.3285   0.10048   0.09635  -0.0361  1.0000  0.0579  -1.3928   0.0000   0.1359
  -7.760  -0.3284   0.10027   0.09615  -0.0363  1.0000  0.0579  -1.3948   0.0000   0.1354
  -7.740  -0.3282   0.10006   0.09595  -0.0365  1.0000  0.0579  -1.3968   0.0000   0.1349
  -7.720  -0.3281   0.09985   0.09574  -0.0366  1.0000  0.0579  -1.3988   0.0000   0.1343
  -7.700  -0.3279   0.09963   0.09552  -0.0368  1.0000  0.0579  -1.4008   0.0000   0.1336
  -7.680  -0.3276   0.09940   0.09530  -0.0371  1.0000  0.0579  -1.4028   0.0000   0.1328
  -7.660  -0.3273   0.09917   0.09507  -0.0373  1.0000  0.0579  -1.4048   0.0000   0.1320
  -7.640  -0.3269   0.09894   0.09484  -0.0375  1.0000  0.0579  -1.4069   0.0000   0.1312
  -7.620  -0.3266   0.09870   0.09462  -0.0378  1.0000  0.0579  -1.4089   0.0000   0.1304
  -7.600  -0.3263   0.09847   0.09439  -0.0380  1.0000  0.0580  -1.4110   0.0000   0.1296
  -7.580  -0.3260   0.09823   0.09416  -0.0382  1.0000  0.0580  -1.4131   0.0000   0.1288
  -7.560  -0.3257   0.09800   0.09392  -0.0385  1.0000  0.0580  -1.4152   0.0000   0.1280
  -7.540  -0.3254   0.09776   0.09369  -0.0387  1.0000  0.0580  -1.4173   0.0000   0.1272
  -7.520  -0.3250   0.09752   0.09346  -0.0389  1.0000  0.0580  -1.4194   0.0000   0.1264
  -7.500  -0.3247   0.09728   0.09323  -0.0391  1.0000  0.0580  -1.4215   0.0000   0.1256
  -7.480  -0.3244   0.09704   0.09299  -0.0394  1.0000  0.0580  -1.4237   0.0000   0.1248
  -7.460  -0.3241   0.09680   0.09276  -0.0396  1.0000  0.0580  -1.4258   0.0000   0.1240
  -7.440  -0.3238   0.09656   0.09252  -0.0398  1.0000  0.0580  -1.4280   0.0000   0.1232
  -7.420  -0.3235   0.09632   0.09229  -0.0400  1.0000  0.0580  -1.4302   0.0000   0.1225
  -7.400  -0.3233   0.09608   0.09205  -0.0403  1.0000  0.0580  -1.4324   0.0000   0.1217
  -7.380  -0.3230   0.09585   0.09182  -0.0405  1.0000  0.0580  -1.4346   0.0000   0.1210
  -7.360  -0.3227   0.09561   0.09158  -0.0407  1.0000  0.0581  -1.4368   0.0000   0.1202
  -7.340  -0.3225   0.09537   0.09135  -0.0409  1.0000  0.0581  -1.4390   0.0000   0.1195
  -7.320  -0.3222   0.09513   0.09112  -0.0411  1.0000  0.0581  -1.4413   0.0000   0.1188
  -7.300  -0.3220   0.09489   0.09089  -0.0413  1.0000  0.0581  -1.4435   0.0000   0.1182
  -7.280  -0.3218   0.09466   0.09065  -0.0415  1.0000  0.0581  -1.4458   0.0000   0.1175
  -7.260  -0.3216   0.09442   0.09043  -0.0416  1.0000  0.0581  -1.4480   0.0000   0.1169
  -7.240  -0.3214   0.09419   0.09020  -0.0418  1.0000  0.0581  -1.4503   0.0000   0.1163
  -7.200  -0.3295   0.09051   0.08660  -0.0419  1.0000  0.0589  -1.5122   0.0000   0.1191
  -7.180  -0.3312   0.08955   0.08565  -0.0418  1.0000  0.0591  -1.5225   0.0000   0.1201
  -7.160  -0.3324   0.08881   0.08492  -0.0417  1.0000  0.0593  -1.5283   0.0000   0.1209
  -7.140  -0.3333   0.08820   0.08432  -0.0416  1.0000  0.0595  -1.5317   0.0000   0.1216
  -7.120  -0.3339   0.08767   0.08379  -0.0415  1.0000  0.0597  -1.5338   0.0000   0.1222
  -7.100  -0.3345   0.08719   0.08332  -0.0414  1.0000  0.0598  -1.5348   0.0000   0.1228
  -7.080  -0.3347   0.08674   0.08288  -0.0411  1.0000  0.0600  -1.5329   0.0000   0.1236
  -7.060  -0.3344   0.08629   0.08243  -0.0406  1.0000  0.0601  -1.5245   0.0000   0.1250
  -7.040  -0.3340   0.08589   0.08203  -0.0402  1.0000  0.0603  -1.5165   0.0000   0.1262
  -7.020  -0.3336   0.08552   0.08168  -0.0397  1.0000  0.0605  -1.5090   0.0000   0.1273
  -7.000  -0.3333   0.08519   0.08135  -0.0394  1.0000  0.0606  -1.5018   0.0000   0.1283
  -6.980  -0.3330   0.08488   0.08104  -0.0390  1.0000  0.0608  -1.4950   0.0000   0.1292
  -6.960  -0.3327   0.08458   0.08075  -0.0387  1.0000  0.0609  -1.4885   0.0000   0.1301
  -6.940  -0.3324   0.08431   0.08048  -0.0384  1.0000  0.0611  -1.4825   0.0000   0.1309
  -6.920  -0.3322   0.08404   0.08022  -0.0382  1.0000  0.0612  -1.4768   0.0000   0.1316
  -6.900  -0.3320   0.08379   0.07998  -0.0379  1.0000  0.0613  -1.4714   0.0000   0.1323
  -6.880  -0.3318   0.08355   0.07974  -0.0377  1.0000  0.0614  -1.4663   0.0000   0.1330
  -6.860  -0.3317   0.08332   0.07952  -0.0374  1.0000  0.0616  -1.4616   0.0000   0.1337
  -6.840  -0.3316   0.08310   0.07930  -0.0372  1.0000  0.0617  -1.4572   0.0000   0.1343
  -6.820  -0.3316   0.08289   0.07910  -0.0370  1.0000  0.0618  -1.4531   0.0000   0.1350
  -6.800  -0.3316   0.08268   0.07890  -0.0368  1.0000  0.0619  -1.4494   0.0000   0.1356
  -6.780  -0.3317   0.08249   0.07871  -0.0366  1.0000  0.0620  -1.4455   0.0000   0.1363
  -6.760  -0.3317   0.08229   0.07853  -0.0363  1.0000  0.0621  -1.4411   0.0000   0.1370
  -6.740  -0.3318   0.08211   0.07835  -0.0361  1.0000  0.0622  -1.4373   0.0000   0.1378
  -6.720  -0.3320   0.08194   0.07819  -0.0359  1.0000  0.0623  -1.4339   0.0000   0.1386
  -6.700  -0.3323   0.08178   0.07804  -0.0356  1.0000  0.0624  -1.4310   0.0000   0.1394
  -6.680  -0.3327   0.08163   0.07789  -0.0354  1.0000  0.0625  -1.4286   0.0000   0.1403
  -6.660  -0.3333   0.08149   0.07777  -0.0352  1.0000  0.0626  -1.4267   0.0000   0.1412
  -6.640  -0.3341   0.08137   0.07766  -0.0349  1.0000  0.0627  -1.4255   0.0000   0.1422
  -6.620  -0.3350   0.08127   0.07756  -0.0346  1.0000  0.0628  -1.4249   0.0000   0.1433
  -6.600  -0.3361   0.08118   0.07748  -0.0344  1.0000  0.0628  -1.4249   0.0000   0.1445
  -6.580  -0.3375   0.08111   0.07743  -0.0341  1.0000  0.0628  -1.4257   0.0000   0.1458
  -6.560  -0.3391   0.08107   0.07740  -0.0338  1.0000  0.0629  -1.4274   0.0000   0.1473
  -6.540  -0.3411   0.08106   0.07740  -0.0334  1.0000  0.0629  -1.4301   0.0000   0.1489
  -6.520  -0.3435   0.08108   0.07744  -0.0330  1.0000  0.0628  -1.4339   0.0000   0.1507
  -6.500  -0.3462   0.08114   0.07751  -0.0326  1.0000  0.0628  -1.4390   0.0000   0.1527
  -6.480  -0.3494   0.08124   0.07762  -0.0322  1.0000  0.0627  -1.4455   0.0000   0.1548
  -6.460  -0.3529   0.08137   0.07776  -0.0318  1.0000  0.0626  -1.4532   0.0000   0.1570
  -6.440  -0.3566   0.08152   0.07793  -0.0313  1.0000  0.0625  -1.4618   0.0000   0.1592
  -6.420  -0.3604   0.08168   0.07811  -0.0309  1.0000  0.0624  -1.4709   0.0000   0.1613
  -6.400  -0.3636   0.08178   0.07822  -0.0306  1.0000  0.0623  -1.4779   0.0000   0.1631
  -6.380  -0.3615   0.08143   0.07787  -0.0306  0.9996  0.0626  -1.4671   0.0000   0.1624
  -6.360  -0.3593   0.08108   0.07752  -0.0307  0.9991  0.0628  -1.4568   0.0000   0.1616
  -6.340  -0.3571   0.08072   0.07716  -0.0309  0.9986  0.0631  -1.4470   0.0000   0.1607
  -6.320  -0.3548   0.08037   0.07681  -0.0311  0.9981  0.0633  -1.4379   0.0000   0.1595
  -6.300  -0.3525   0.08001   0.07645  -0.0313  0.9976  0.0636  -1.4291   0.0000   0.1583
  -6.280  -0.3502   0.07966   0.07609  -0.0316  0.9971  0.0638  -1.4208   0.0000   0.1568
  -6.260  -0.3478   0.07930   0.07573  -0.0319  0.9966  0.0641  -1.4129   0.0000   0.1553
  -6.240  -0.3455   0.07894   0.07537  -0.0323  0.9959  0.0643  -1.4054   0.0000   0.1537
  -6.220  -0.3431   0.07859   0.07501  -0.0326  0.9953  0.0646  -1.3983   0.0000   0.1519
  -6.200  -0.3407   0.07823   0.07465  -0.0330  0.9946  0.0649  -1.3913   0.0000   0.1501
  -6.180  -0.3383   0.07787   0.07429  -0.0334  0.9940  0.0652  -1.3845   0.0000   0.1482
  -6.160  -0.3358   0.07751   0.07392  -0.0339  0.9933  0.0655  -1.3780   0.0000   0.1462
  -6.140  -0.3333   0.07714   0.07356  -0.0343  0.9926  0.0657  -1.3719   0.0000   0.1440
  -6.120  -0.3308   0.07677   0.07318  -0.0348  0.9919  0.0661  -1.3660   0.0000   0.1416
  -6.100  -0.3282   0.07640   0.07280  -0.0354  0.9912  0.0664  -1.3604   0.0000   0.1392
  -6.080  -0.3255   0.07602   0.07242  -0.0359  0.9906  0.0667  -1.3550   0.0000   0.1365
  -6.060  -0.3228   0.07563   0.07203  -0.0365  0.9899  0.0670  -1.3499   0.0000   0.1338
  -6.040  -0.3201   0.07525   0.07164  -0.0372  0.9893  0.0674  -1.3451   0.0000   0.1308
  -6.020  -0.3173   0.07485   0.07124  -0.0378  0.9887  0.0677  -1.3404   0.0000   0.1277
  -6.000  -0.3144   0.07446   0.07084  -0.0385  0.9881  0.0681  -1.3361   0.0000   0.1244
  -5.980  -0.3115   0.07405   0.07043  -0.0392  0.9876  0.0684  -1.3319   0.0000   0.1210
  -5.960  -0.3088   0.07367   0.07004  -0.0399  0.9868  0.0688  -1.3283   0.0000   0.1177
  -5.940  -0.3064   0.07330   0.06966  -0.0405  0.9858  0.0692  -1.3252   0.0000   0.1147
  -5.920  -0.3039   0.07292   0.06928  -0.0411  0.9848  0.0695  -1.3223   0.0000   0.1115
  -5.900  -0.3014   0.07254   0.06889  -0.0418  0.9838  0.0699  -1.3195   0.0000   0.1081
  -5.880  -0.2987   0.07215   0.06850  -0.0425  0.9828  0.0703  -1.3169   0.0000   0.1045
  -5.860  -0.2960   0.07176   0.06809  -0.0432  0.9819  0.0707  -1.3144   0.0000   0.1008
  -5.840  -0.2932   0.07136   0.06768  -0.0440  0.9810  0.0711  -1.3121   0.0000   0.0968
  -5.820  -0.2904   0.07095   0.06727  -0.0448  0.9801  0.0716  -1.3100   0.0000   0.0925
  -5.800  -0.2874   0.07055   0.06685  -0.0456  0.9792  0.0721  -1.3081   0.0000   0.0881
  -5.780  -0.2842   0.07016   0.06623  -0.0465  0.9784  0.0734  -1.3060   0.0000   0.0831
  -5.760  -0.2810   0.06972   0.06578  -0.0474  0.9776  0.0739  -1.3051   0.0000   0.0779
  -5.740  -0.2777   0.06927   0.06533  -0.0484  0.9768  0.0744  -1.3046   0.0000   0.0723
  -5.720  -0.2743   0.06882   0.06487  -0.0495  0.9761  0.0749  -1.3044   0.0000   0.0664
  -5.700  -0.2709   0.06836   0.06440  -0.0505  0.9754  0.0755  -1.3045   0.0000   0.0601
  -5.680  -0.2672   0.06790   0.06392  -0.0517  0.9747  0.0761  -1.3051   0.0000   0.0533
  -5.660  -0.2634   0.06742   0.06344  -0.0529  0.9741  0.0767  -1.3062   0.0000   0.0458
  -5.640  -0.2594   0.06694   0.06294  -0.0542  0.9735  0.0774  -1.3081   0.0000   0.0376
  -5.620  -0.2551   0.06646   0.06244  -0.0556  0.9729  0.0781  -1.3110   0.0000   0.0284
  -5.600  -0.2503   0.06599   0.06196  -0.0571  0.9723  0.0790  -1.3145   0.0000   0.0182
  -5.580  -0.2461   0.06560   0.06155  -0.0586  0.9711  0.0798  -1.3195   0.0000   0.0085
  -5.560  -0.2423   0.06531   0.06123  -0.0599  0.9693  0.0807  -1.3263   0.0000  -0.0010
  -5.540  -0.2360   0.06516   0.06103  -0.0623  0.9673  0.0820  -1.3399   0.0000  -0.0175
  -5.520  -0.2251   0.06582   0.06159  -0.0656  0.9650  0.0839  -1.3556   0.0000  -0.0454
  -5.500  -0.2191   0.06605   0.06176  -0.0670  0.9637  0.0845  -1.3568   0.0000  -0.0599
  -5.480  -0.2146   0.06601   0.06168  -0.0681  0.9627  0.0847  -1.3571   0.0000  -0.0712
  -5.460  -0.2105   0.06585   0.06149  -0.0690  0.9618  0.0849  -1.3572   0.0000  -0.0816
  -5.440  -0.2068   0.06564   0.06125  -0.0698  0.9609  0.0851  -1.3571   0.0000  -0.0917
  -5.420  -0.2031   0.06539   0.06097  -0.0706  0.9602  0.0851  -1.3569   0.0000  -0.1017
  -5.400  -0.1996   0.06511   0.06066  -0.0713  0.9595  0.0852  -1.3565   0.0000  -0.1117
  -5.380  -0.1961   0.06481   0.06033  -0.0721  0.9588  0.0853  -1.3560   0.0000  -0.1219
  -5.360  -0.1927   0.06449   0.05999  -0.0728  0.9581  0.0854  -1.3555   0.0000  -0.1321
  -5.340  -0.1893   0.06416   0.05964  -0.0735  0.9575  0.0854  -1.3549   0.0000  -0.1426
  -5.320  -0.1859   0.06383   0.05928  -0.0741  0.9568  0.0855  -1.3542   0.0000  -0.1532
  -5.300  -0.1826   0.06348   0.05891  -0.0748  0.9562  0.0855  -1.3535   0.0000  -0.1641
  -5.280  -0.1896   0.05899   0.05445  -0.0770  0.9555  0.0870  -1.4247   0.0000  -0.1605
  -5.260  -0.1898   0.05754   0.05301  -0.0776  0.9550  0.0877  -1.4336   0.0000  -0.1637
  -5.240  -0.1887   0.05659   0.05207  -0.0781  0.9545  0.0882  -1.4336   0.0000  -0.1686
  -5.220  -0.1871   0.05585   0.05133  -0.0785  0.9541  0.0887  -1.4302   0.0000  -0.1744
  -5.200  -0.1850   0.05532   0.05083  -0.0787  0.9537  0.0890  -1.4206   0.0000  -0.1797
  -5.180  -0.1828   0.05486   0.05038  -0.0788  0.9533  0.0893  -1.4105   0.0000  -0.1855
  -5.160  -0.1806   0.05443   0.04997  -0.0789  0.9530  0.0897  -1.4002   0.0000  -0.1918
  -5.140  -0.1782   0.05403   0.04958  -0.0791  0.9526  0.0900  -1.3897   0.0000  -0.1986
  -5.120  -0.1757   0.05365   0.04921  -0.0793  0.9522  0.0904  -1.3793   0.0000  -0.2058
  -5.100  -0.1732   0.05329   0.04886  -0.0794  0.9519  0.0907  -1.3690   0.0000  -0.2136
  -5.080  -0.1706   0.05294   0.04852  -0.0796  0.9515  0.0911  -1.3588   0.0000  -0.2218
  -5.060  -0.1688   0.05266   0.04824  -0.0797  0.9505  0.0914  -1.3508   0.0000  -0.2271
  -5.040  -0.1678   0.05244   0.04803  -0.0796  0.9489  0.0916  -1.3448   0.0000  -0.2294
  -5.020  -0.1664   0.05221   0.04779  -0.0796  0.9476  0.0919  -1.3381   0.0000  -0.2333
  -5.000  -0.1648   0.05196   0.04754  -0.0796  0.9463  0.0922  -1.3311   0.0000  -0.2382
  -4.980  -0.1630   0.05170   0.04729  -0.0797  0.9452  0.0925  -1.3239   0.0000  -0.2441
  -4.960  -0.1610   0.05144   0.04703  -0.0798  0.9441  0.0929  -1.3167   0.0000  -0.2507
  -4.940  -0.1590   0.05117   0.04676  -0.0800  0.9430  0.0933  -1.3096   0.0000  -0.2581
  -4.920  -0.1568   0.05090   0.04649  -0.0801  0.9420  0.0936  -1.3025   0.0000  -0.2662
  -4.900  -0.1545   0.05063   0.04622  -0.0803  0.9410  0.0940  -1.2956   0.0000  -0.2749
  -4.880  -0.1522   0.05036   0.04594  -0.0805  0.9401  0.0944  -1.2888   0.0000  -0.2844
  -4.860  -0.1498   0.05008   0.04566  -0.0808  0.9392  0.0949  -1.2820   0.0000  -0.2946
  -4.840  -0.1473   0.04980   0.04538  -0.0810  0.9383  0.0953  -1.2750   0.0000  -0.3054
  -4.820  -0.1447   0.04952   0.04509  -0.0813  0.9375  0.0958  -1.2683   0.0000  -0.3171
  -4.800  -0.1421   0.04924   0.04480  -0.0816  0.9367  0.0962  -1.2618   0.0000  -0.3297
  -4.780  -0.1394   0.04895   0.04451  -0.0819  0.9359  0.0967  -1.2555   0.0000  -0.3432
  -4.760  -0.1366   0.04866   0.04421  -0.0822  0.9351  0.0973  -1.2494   0.0000  -0.3576
  -4.740  -0.1338   0.04836   0.04391  -0.0826  0.9343  0.0978  -1.2435   0.0000  -0.3730
  -4.720  -0.1309   0.04807   0.04360  -0.0829  0.9336  0.0984  -1.2379   0.0000  -0.3894
  -4.700  -0.1280   0.04777   0.04329  -0.0833  0.9329  0.0990  -1.2326   0.0000  -0.4070
  -4.680  -0.1250   0.04746   0.04298  -0.0837  0.9321  0.0996  -1.2274   0.0000  -0.4258
  -4.660  -0.1220   0.04716   0.04266  -0.0841  0.9314  0.1003  -1.2226   0.0000  -0.4458
  -4.640  -0.1189   0.04685   0.04234  -0.0846  0.9308  0.1009  -1.2179   0.0000  -0.4673
  -4.620  -0.1158   0.04655   0.04202  -0.0850  0.9301  0.1016  -1.2136   0.0000  -0.4904
  -4.600  -0.1127   0.04624   0.04169  -0.0854  0.9294  0.1024  -1.2095   0.0000  -0.5152
  -4.580  -0.1095   0.04593   0.04137  -0.0859  0.9288  0.1032  -1.2057   0.0000  -0.5419
  -4.560  -0.1062   0.04563   0.04104  -0.0864  0.9281  0.1040  -1.2021   0.0000  -0.5708
  -4.540  -0.1029   0.04533   0.04072  -0.0869  0.9275  0.1049  -1.1989   0.0000  -0.6023
  -4.520  -0.0994   0.04504   0.04040  -0.0874  0.9269  0.1059  -1.1960   0.0000  -0.6368
  -4.500  -0.0959   0.04476   0.04009  -0.0879  0.9263  0.1069  -1.1934   0.0000  -0.6752
  -4.480  -0.0921   0.04450   0.03980  -0.0885  0.9257  0.1081  -1.1912   0.0000  -0.7189
  -4.460  -0.0903   0.04436   0.03964  -0.0887  0.9241  0.1090  -1.1905   0.0000  -0.7403
  -4.440  -0.0885   0.04426   0.03951  -0.0888  0.9223  0.1099  -1.1901   0.0000  -0.7617
  -4.420  -0.0860   0.04424   0.03945  -0.0890  0.9207  0.1112  -1.1901   0.0000  -0.7943
  -4.400  -0.0820   0.04455   0.03970  -0.0893  0.9191  0.1132  -1.1876   0.0000  -0.8481
  -4.380  -0.0711   0.04780   0.04276  -0.0893  0.9170  0.1173  -1.1615   0.0000  -1.0169
  -4.360  -0.0685   0.04781   0.04273  -0.0894  0.9157  0.1175  -1.1580   0.0000  -1.0666
  -4.340  -0.0660   0.04773   0.04263  -0.0896  0.9145  0.1176  -1.1549   0.0000  -1.1186
  -4.320  -0.0635   0.04760   0.04247  -0.0897  0.9133  0.1177  -1.1520   0.0000  -1.1743
  -4.300  -0.0610   0.04744   0.04229  -0.0899  0.9122  0.1178  -1.1493   0.0000  -1.2345
  -4.280  -0.0586   0.04726   0.04208  -0.0901  0.9112  0.1178  -1.1466   0.0000  -1.2999
  -4.200  -0.0635   0.04032   0.03519  -0.0926  0.9076  0.1236  -1.1942   0.0000  -1.2191
  -4.180  -0.0615   0.04000   0.03488  -0.0927  0.9067  0.1240  -1.1875   0.0000  -1.2687
  -4.160  -0.0594   0.03969   0.03458  -0.0928  0.9059  0.1244  -1.1809   0.0000  -1.3231
  -4.140  -0.0573   0.03940   0.03430  -0.0928  0.9051  0.1248  -1.1743   0.0000  -1.3827
  -4.120  -0.0551   0.03912   0.03402  -0.0929  0.9043  0.1252  -1.1678   0.0000  -1.4483
  -4.100  -0.0529   0.03885   0.03375  -0.0930  0.9036  0.1256  -1.1615   0.0000  -1.5205
  -4.080  -0.0507   0.03859   0.03348  -0.0931  0.9028  0.1260  -1.1553   0.0000  -1.6002
  -4.060  -0.0484   0.03833   0.03322  -0.0932  0.9021  0.1264  -1.1493   0.0000  -1.6880
  -4.040  -0.0462   0.03808   0.03297  -0.0933  0.9014  0.1268  -1.1435   0.0000  -1.7857
  -4.020  -0.0439   0.03783   0.03271  -0.0934  0.9007  0.1272  -1.1379   0.0000  -1.8949
  -4.000  -0.0415   0.03758   0.03246  -0.0935  0.9000  0.1276  -1.1325   0.0000  -2.0181
  -3.980  -0.0391   0.03734   0.03220  -0.0936  0.8993  0.1280  -1.1273   0.0000  -2.1582
  -3.960  -0.0367   0.03709   0.03195  -0.0937  0.8986  0.1284  -1.1222   0.0000  -2.3194
  -3.940  -0.0343   0.03685   0.03169  -0.0938  0.8979  0.1288  -1.1174   0.0000  -2.5081
  -3.920  -0.0318   0.03660   0.03144  -0.0940  0.8973  0.1292  -1.1127   0.0000  -2.7296
  -3.900  -0.0292   0.03636   0.03118  -0.0941  0.8967  0.1296  -1.1082   0.0000  -2.9917
  -3.880  -0.0267   0.03612   0.03092  -0.0943  0.8960  0.1300  -1.1038   0.0000  -3.3062
  -3.860  -0.0241   0.03588   0.03066  -0.0944  0.8954  0.1304  -1.0997   0.0000  -3.6896
  -3.840  -0.0222   0.03567   0.03044  -0.0945  0.8944  0.1307  -1.0964   0.0000  -4.0377
  -3.820  -0.0207   0.03549   0.03024  -0.0945  0.8932  0.1310  -1.0937   0.0000  -4.3401
  -3.800  -0.0192   0.03530   0.03004  -0.0944  0.8920  0.1312  -1.0910   0.0000  -4.7163
  -3.780  -0.0175   0.03510   0.02984  -0.0944  0.8909  0.1315  -1.0883   0.0000  -5.1894
  -3.760  -0.0157   0.03490   0.02962  -0.0944  0.8897  0.1317  -1.0858   0.0000  -5.7949
  -3.740  -0.0139   0.03470   0.02940  -0.0945  0.8886  0.1320  -1.0833   0.0000  -6.5899
  -3.720  -0.0120   0.03449   0.02917  -0.0945  0.8875  0.1322  -1.0809   0.0000  -7.6715
  -3.700  -0.0101   0.03427   0.02894  -0.0946  0.8864  0.1324  -1.0787   0.0000  -9.2188
  -3.680  -0.0080   0.03405   0.02870  -0.0946  0.8853  0.1325  -1.0767   0.0000  -11.6028
  -3.660  -0.0060   0.03382   0.02844  -0.0947  0.8843  0.1326  -1.0750   0.0000  -15.7415
  -3.640  -0.0038   0.03358   0.02818  -0.0948  0.8832  0.1326  -1.0736   0.0000  -24.6802
  -3.620  -0.0016   0.03333   0.02790  -0.0949  0.8823  0.1325  -1.0728   0.0000  -58.3006
  -3.600   0.0006   0.03306   0.02760  -0.0950  0.8813  0.1323  -1.0726   0.0000  151.0654
  -3.580   0.0030   0.03277   0.02728  -0.0951  0.8803  0.1319  -1.0735   0.0000  32.3436
  -3.560   0.0054   0.03246   0.02692  -0.0953  0.8794  0.1313  -1.0759   0.0000  17.8611
  -3.540   0.0081   0.03210   0.02650  -0.0955  0.8785  0.1302  -1.0813   0.0000  12.1070
  -3.520   0.0258   0.02508   0.01794  -0.0957  0.8795  0.0415  -1.6394   0.0000   3.9944
  -3.500   0.0285   0.02475   0.01751  -0.0956  0.8787  0.0403  -1.6605   0.0000   3.6337
  -3.480   0.0313   0.02456   0.01723  -0.0955  0.8779  0.0394  -1.6727   0.0000   3.3345
  -3.460   0.0339   0.02447   0.01709  -0.0954  0.8770  0.0387  -1.6753   0.0000   3.0893
  -3.440   0.0365   0.02445   0.01703  -0.0954  0.8762  0.0382  -1.6715   0.0000   2.8844
  -3.420   0.0391   0.02445   0.01700  -0.0953  0.8753  0.0378  -1.6641   0.0000   2.7094
  -3.400   0.0416   0.02447   0.01701  -0.0952  0.8745  0.0375  -1.6542   0.0000   2.5574
  -3.380   0.0442   0.02451   0.01703  -0.0952  0.8737  0.0372  -1.6429   0.0000   2.4238
  -3.360   0.0467   0.02455   0.01706  -0.0951  0.8729  0.0369  -1.6304   0.0000   2.3052
  -3.340   0.0492   0.02460   0.01710  -0.0951  0.8721  0.0367  -1.6171   0.0000   2.1993
  -3.320   0.0517   0.02465   0.01715  -0.0950  0.8713  0.0364  -1.6032   0.0000   2.1039
  -3.300   0.0542   0.02470   0.01720  -0.0950  0.8706  0.0362  -1.5889   0.0000   2.0176
  -3.280   0.0567   0.02475   0.01726  -0.0949  0.8698  0.0360  -1.5743   0.0000   1.9392
  -3.260   0.0591   0.02481   0.01732  -0.0948  0.8691  0.0359  -1.5594   0.0000   1.8676
  -3.240   0.0610   0.02417   0.01659  -0.0949  0.8684  0.0354  -1.5752   0.0000   1.8182
  -3.220   0.0631   0.02374   0.01611  -0.0949  0.8678  0.0351  -1.5830   0.0000   1.7669
  -3.200   0.0653   0.02340   0.01572  -0.0949  0.8671  0.0349  -1.5869   0.0000   1.7167
  -3.180   0.0674   0.02310   0.01539  -0.0949  0.8665  0.0347  -1.5889   0.0000   1.6687
  -3.160   0.0697   0.02283   0.01508  -0.0949  0.8659  0.0345  -1.5898   0.0000   1.6230
  -3.140   0.0719   0.02259   0.01479  -0.0948  0.8652  0.0343  -1.5899   0.0000   1.5795
  -3.120   0.0742   0.02235   0.01451  -0.0948  0.8646  0.0341  -1.5894   0.0000   1.5381
  -3.100   0.0766   0.02213   0.01426  -0.0948  0.8639  0.0339  -1.5884   0.0000   1.4988
  -3.080   0.0789   0.02192   0.01401  -0.0948  0.8633  0.0338  -1.5870   0.0000   1.4616
  -3.060   0.0812   0.02172   0.01377  -0.0948  0.8627  0.0336  -1.5851   0.0000   1.4265
  -3.040   0.0836   0.02153   0.01355  -0.0947  0.8621  0.0335  -1.5830   0.0000   1.3931
  -3.020   0.0859   0.02135   0.01333  -0.0947  0.8614  0.0333  -1.5806   0.0000   1.3615
  -3.000   0.0883   0.02118   0.01313  -0.0947  0.8608  0.0332  -1.5779   0.0000   1.3315
  -2.980   0.0905   0.02102   0.01293  -0.0947  0.8601  0.0330  -1.5751   0.0000   1.3045
  -2.960   0.0925   0.02087   0.01276  -0.0946  0.8593  0.0329  -1.5724   0.0000   1.2816
  -2.940   0.0944   0.02072   0.01259  -0.0945  0.8584  0.0328  -1.5695   0.0000   1.2595
  -2.920   0.0964   0.02058   0.01243  -0.0945  0.8576  0.0326  -1.5664   0.0000   1.2381
  -2.900   0.0984   0.02044   0.01227  -0.0944  0.8568  0.0325  -1.5631   0.0000   1.2174
  -2.880   0.1004   0.02030   0.01211  -0.0944  0.8559  0.0324  -1.5597   0.0000   1.1974
  -2.860   0.1024   0.02017   0.01195  -0.0943  0.8551  0.0323  -1.5562   0.0000   1.1781
  -2.840   0.1045   0.02004   0.01180  -0.0942  0.8542  0.0322  -1.5525   0.0000   1.1593
  -2.820   0.1065   0.01991   0.01165  -0.0942  0.8534  0.0321  -1.5487   0.0000   1.1412
  -2.800   0.1086   0.01978   0.01150  -0.0941  0.8525  0.0320  -1.5447   0.0000   1.1237
  -2.780   0.1107   0.01965   0.01135  -0.0941  0.8517  0.0319  -1.5406   0.0000   1.1068
  -2.760   0.1127   0.01953   0.01121  -0.0940  0.8508  0.0318  -1.5363   0.0000   1.0904
  -2.740   0.1148   0.01941   0.01107  -0.0939  0.8500  0.0317  -1.5320   0.0000   1.0745
  -2.720   0.1169   0.01929   0.01093  -0.0939  0.8491  0.0316  -1.5275   0.0000   1.0591
  -2.700   0.1190   0.01917   0.01080  -0.0938  0.8483  0.0315  -1.5229   0.0000   1.0442
  -2.680   0.1211   0.01905   0.01067  -0.0937  0.8475  0.0314  -1.5181   0.0000   1.0298
  -2.660   0.1233   0.01894   0.01054  -0.0937  0.8467  0.0314  -1.5132   0.0000   1.0159
  -2.640   0.1254   0.01883   0.01041  -0.0936  0.8459  0.0313  -1.5081   0.0000   1.0024
  -2.620   0.1275   0.01872   0.01028  -0.0936  0.8451  0.0312  -1.5030   0.0000   0.9893
  -2.600   0.1296   0.01861   0.01016  -0.0935  0.8443  0.0312  -1.4976   0.0000   0.9766
  -2.580   0.1318   0.01850   0.01004  -0.0934  0.8435  0.0311  -1.4922   0.0000   0.9644
  -2.560   0.1339   0.01840   0.00992  -0.0934  0.8427  0.0311  -1.4866   0.0000   0.9525
  -2.540   0.1361   0.01830   0.00980  -0.0933  0.8419  0.0310  -1.4809   0.0000   0.9409
  -2.520   0.1382   0.01820   0.00969  -0.0932  0.8412  0.0310  -1.4751   0.0000   0.9297
  -2.500   0.1404   0.01810   0.00957  -0.0932  0.8404  0.0309  -1.4691   0.0000   0.9188
  -2.480   0.1425   0.01801   0.00946  -0.0931  0.8397  0.0309  -1.4631   0.0000   0.9082
  -2.460   0.1447   0.01791   0.00936  -0.0930  0.8390  0.0308  -1.4569   0.0000   0.8980
  -2.440   0.1468   0.01782   0.00925  -0.0930  0.8382  0.0308  -1.4505   0.0000   0.8880
  -2.420   0.1489   0.01773   0.00915  -0.0929  0.8375  0.0308  -1.4441   0.0000   0.8784
  -2.400   0.1511   0.01764   0.00905  -0.0929  0.8368  0.0308  -1.4376   0.0000   0.8690
  -2.380   0.1532   0.01755   0.00895  -0.0928  0.8361  0.0308  -1.4309   0.0000   0.8598
  -2.360   0.1554   0.01747   0.00885  -0.0927  0.8354  0.0308  -1.4242   0.0000   0.8510
  -2.340   0.1575   0.01739   0.00875  -0.0927  0.8347  0.0308  -1.4173   0.0000   0.8423
  -2.320   0.1597   0.01731   0.00866  -0.0926  0.8340  0.0308  -1.4103   0.0000   0.8339
  -2.300   0.1618   0.01723   0.00857  -0.0925  0.8333  0.0308  -1.4032   0.0000   0.8257
  -2.280   0.1639   0.01715   0.00848  -0.0924  0.8326  0.0308  -1.3961   0.0000   0.8178
  -2.260   0.1661   0.01708   0.00839  -0.0924  0.8320  0.0308  -1.3888   0.0000   0.8100
  -2.240   0.1682   0.01701   0.00831  -0.0923  0.8313  0.0308  -1.3814   0.0000   0.8025
  -2.220   0.1703   0.01694   0.00823  -0.0922  0.8306  0.0309  -1.3739   0.0000   0.7951
  -2.200   0.1725   0.01687   0.00814  -0.0922  0.8300  0.0309  -1.3663   0.0000   0.7879
  -2.180   0.1746   0.01681   0.00807  -0.0921  0.8293  0.0310  -1.3587   0.0000   0.7809
  -2.160   0.1767   0.01674   0.00799  -0.0920  0.8286  0.0310  -1.3510   0.0000   0.7741
  -2.140   0.1789   0.01668   0.00791  -0.0919  0.8280  0.0311  -1.3432   0.0000   0.7674
  -2.120   0.1810   0.01663   0.00784  -0.0919  0.8273  0.0311  -1.3353   0.0000   0.7609
  -2.100   0.1831   0.01657   0.00777  -0.0918  0.8266  0.0312  -1.3273   0.0000   0.7544
  -2.080   0.1853   0.01652   0.00771  -0.0917  0.8260  0.0313  -1.3192   0.0000   0.7482
  -2.060   0.1875   0.01648   0.00764  -0.0917  0.8253  0.0314  -1.3110   0.0000   0.7420
  -2.040   0.1896   0.01643   0.00758  -0.0916  0.8246  0.0315  -1.3028   0.0000   0.7361
  -2.020   0.1918   0.01639   0.00752  -0.0915  0.8239  0.0316  -1.2946   0.0000   0.7302
  -2.000   0.1940   0.01636   0.00747  -0.0915  0.8232  0.0317  -1.2862   0.0000   0.7245
  -1.980   0.1962   0.01633   0.00742  -0.0914  0.8224  0.0318  -1.2778   0.0000   0.7189
  -1.960   0.1983   0.01631   0.00738  -0.0914  0.8217  0.0320  -1.2695   0.0000   0.7136
  -1.940   0.2003   0.01626   0.00733  -0.0913  0.8210  0.0321  -1.2614   0.0000   0.7086
  -1.920   0.2024   0.01622   0.00727  -0.0913  0.8203  0.0322  -1.2533   0.0000   0.7038
  -1.900   0.2044   0.01618   0.00722  -0.0913  0.8196  0.0324  -1.2451   0.0000   0.6991
  -1.880   0.2064   0.01614   0.00717  -0.0912  0.8188  0.0326  -1.2369   0.0000   0.6944
  -1.860   0.2085   0.01611   0.00713  -0.0912  0.8180  0.0327  -1.2286   0.0000   0.6898
  -1.840   0.2105   0.01607   0.00708  -0.0911  0.8173  0.0329  -1.2203   0.0000   0.6853
  -1.820   0.2126   0.01604   0.00703  -0.0911  0.8165  0.0331  -1.2119   0.0000   0.6808
  -1.800   0.2146   0.01601   0.00699  -0.0910  0.8157  0.0333  -1.2035   0.0000   0.6764
  -1.780   0.2167   0.01598   0.00694  -0.0910  0.8149  0.0335  -1.1950   0.0000   0.6721
  -1.760   0.2188   0.01594   0.00690  -0.0909  0.8140  0.0338  -1.1865   0.0000   0.6678
  -1.740   0.2208   0.01592   0.00685  -0.0909  0.8132  0.0340  -1.1780   0.0000   0.6637
  -1.720   0.2229   0.01589   0.00681  -0.0908  0.8124  0.0342  -1.1694   0.0000   0.6596
  -1.700   0.2250   0.01586   0.00677  -0.0908  0.8116  0.0345  -1.1608   0.0000   0.6555
  -1.680   0.2271   0.01583   0.00673  -0.0907  0.8108  0.0348  -1.1521   0.0000   0.6515
  -1.660   0.2292   0.01581   0.00669  -0.0907  0.8100  0.0351  -1.1434   0.0000   0.6476
  -1.640   0.2313   0.01578   0.00665  -0.0906  0.8091  0.0354  -1.1346   0.0000   0.6437
  -1.620   0.2335   0.01576   0.00661  -0.0906  0.8083  0.0357  -1.1258   0.0000   0.6399
  -1.580   0.2377   0.01566   0.00649  -0.0905  0.8068  0.0373  -1.1165   0.0000   0.6323
  -1.560   0.2399   0.01561   0.00642  -0.0904  0.8060  0.0385  -1.1122   0.0000   0.6286
  -1.540   0.2420   0.01556   0.00637  -0.0903  0.8052  0.0400  -1.1075   0.0000   0.6250
  -1.520   0.2442   0.01551   0.00632  -0.0903  0.8045  0.0417  -1.1020   0.0000   0.6215
  -1.500   0.2463   0.01547   0.00628  -0.0902  0.8037  0.0439  -1.0962   0.0000   0.6180
  -1.480   0.2484   0.01542   0.00625  -0.0902  0.8030  0.0465  -1.0899   0.0000   0.6146
  -1.460   0.2505   0.01537   0.00622  -0.0901  0.8023  0.0498  -1.0835   0.0000   0.6113
  -1.440   0.2527   0.01532   0.00619  -0.0901  0.8016  0.0539  -1.0772   0.0000   0.6081
  -1.400   0.2567   0.01515   0.00613  -0.0900  0.8002  0.0775  -1.0643   0.0000   0.6021
  -1.380   0.2586   0.01502   0.00611  -0.0900  0.7995  0.1018  -1.0574   0.0000   0.5994
  -1.360   0.2605   0.01490   0.00610  -0.0900  0.7988  0.1276  -1.0499   0.0000   0.5969
  -1.340   0.2623   0.01477   0.00609  -0.0900  0.7982  0.1589  -1.0419   0.0000   0.5944
  -1.320   0.2640   0.01462   0.00610  -0.0900  0.7976  0.1977  -1.0336   0.0000   0.5921
  -1.300   0.2657   0.01447   0.00610  -0.0900  0.7969  0.2349  -1.0249   0.0000   0.5899
  -1.280   0.2675   0.01435   0.00610  -0.0900  0.7963  0.2645  -1.0157   0.0000   0.5876
  -1.260   0.2694   0.01428   0.00610  -0.0899  0.7957  0.2849  -1.0059   0.0000   0.5849
  -1.240   0.2713   0.01421   0.00609  -0.0899  0.7951  0.3024  -0.9958   0.0000   0.5824
  -1.220   0.2733   0.01415   0.00609  -0.0898  0.7945  0.3219  -0.9855   0.0000   0.5799
  -1.200   0.2751   0.01407   0.00609  -0.0898  0.7939  0.3453  -0.9750   0.0000   0.5774
  -1.180   0.2766   0.01393   0.00611  -0.0897  0.7933  0.3865  -0.9651   0.0000   0.5753
  -1.160   0.2780   0.01376   0.00613  -0.0896  0.7927  0.4366  -0.9554   0.0000   0.5733
  -1.140   0.2789   0.01359   0.00616  -0.0893  0.7922  0.4867  -0.9466   0.0000   0.5713
  -1.120   0.2797   0.01343   0.00619  -0.0890  0.7916  0.5358  -0.9381   0.0000   0.5692
  -1.100   0.2804   0.01328   0.00622  -0.0886  0.7910  0.5829  -0.9296   0.0000   0.5671
  -1.080   0.2812   0.01315   0.00624  -0.0882  0.7905  0.6265  -0.9210   0.0000   0.5647
  -1.040   0.2828   0.01295   0.00627  -0.0874  0.7894  0.6963  -0.9034   0.0000   0.5598
  -1.020   0.2841   0.01289   0.00628  -0.0870  0.7889  0.7201  -0.8935   0.0000   0.5572
  -1.000   0.2853   0.01283   0.00629  -0.0867  0.7883  0.7428  -0.8837   0.0000   0.5546
  -0.980   0.2867   0.01278   0.00629  -0.0863  0.7878  0.7668  -0.8733   0.0000   0.5520
  -0.960   0.2881   0.01272   0.00630  -0.0860  0.7873  0.7925  -0.8625   0.0000   0.5492
  -0.940   0.2902   0.01266   0.00629  -0.0857  0.7868  0.8224  -0.8498   0.0000   0.5462
  -0.920   0.2947   0.01256   0.00627  -0.0859  0.7863  0.8674  -0.8300   0.0000   0.5423
  -0.900   0.3144   0.01235   0.00610  -0.0892  0.7861  0.9979  -0.7648   0.0000   0.5344
  -0.880   0.3169   0.01237   0.00610  -0.0893  0.7856  1.0000  -0.7511   0.0000   0.5323
  -0.860   0.3190   0.01239   0.00610  -0.0892  0.7850  1.0000  -0.7382   0.0000   0.5302
  -0.840   0.3211   0.01242   0.00611  -0.0892  0.7844  1.0000  -0.7251   0.0000   0.5282
  -0.820   0.3232   0.01244   0.00612  -0.0891  0.7837  1.0000  -0.7117   0.0000   0.5263
  -0.800   0.3254   0.01247   0.00613  -0.0891  0.7831  1.0000  -0.6981   0.0000   0.5243
  -0.780   0.3275   0.01250   0.00615  -0.0891  0.7825  1.0000  -0.6841   0.0000   0.5224
  -0.760   0.3296   0.01254   0.00617  -0.0890  0.7818  1.0000  -0.6696   0.0000   0.5205
  -0.740   0.3317   0.01258   0.00619  -0.0890  0.7811  1.0000  -0.6543   0.0000   0.5187
  -0.720   0.3339   0.01263   0.00623  -0.0890  0.7805  1.0000  -0.6378   0.0000   0.5169
  -0.700   0.3360   0.01266   0.00625  -0.0890  0.7798  1.0000  -0.6185   0.0000   0.5151
  -0.660   0.3402   0.01270   0.00629  -0.0889  0.7789  1.0000  -0.5841   0.0000   0.5116
  -0.640   0.3423   0.01271   0.00630  -0.0889  0.7784  1.0000  -0.5854   0.0000   0.5100
  -0.620   0.3443   0.01272   0.00630  -0.0889  0.7778  1.0000  -0.5866   0.0000   0.5084
  -0.600   0.3464   0.01274   0.00631  -0.0889  0.7773  1.0000  -0.5878   0.0000   0.5068
  -0.580   0.3485   0.01275   0.00632  -0.0889  0.7768  1.0000  -0.5891   0.0000   0.5053
  -0.560   0.3505   0.01277   0.00632  -0.0889  0.7762  1.0000  -0.5903   0.0000   0.5037
  -0.540   0.3526   0.01279   0.00633  -0.0889  0.7756  1.0000  -0.5915   0.0000   0.5022
  -0.520   0.3547   0.01280   0.00634  -0.0889  0.7750  1.0000  -0.5927   0.0000   0.5007
  -0.500   0.3567   0.01282   0.00635  -0.0888  0.7744  1.0000  -0.5940   0.0000   0.4992
  -0.480   0.3588   0.01284   0.00635  -0.0888  0.7738  1.0000  -0.5952   0.0000   0.4977
  -0.460   0.3608   0.01285   0.00636  -0.0888  0.7732  1.0000  -0.5964   0.0000   0.4962
  -0.440   0.3629   0.01287   0.00637  -0.0888  0.7726  1.0000  -0.5977   0.0000   0.4948
  -0.420   0.3650   0.01289   0.00638  -0.0888  0.7720  1.0000  -0.5989   0.0000   0.4933
  -0.400   0.3671   0.01291   0.00638  -0.0888  0.7714  1.0000  -0.6001   0.0000   0.4919
  -0.380   0.3691   0.01292   0.00639  -0.0888  0.7707  1.0000  -0.6014   0.0000   0.4905
  -0.360   0.3712   0.01294   0.00640  -0.0888  0.7701  1.0000  -0.6026   0.0000   0.4891
  -0.340   0.3733   0.01296   0.00641  -0.0888  0.7694  1.0000  -0.6039   0.0000   0.4877
  -0.320   0.3753   0.01298   0.00642  -0.0887  0.7688  1.0000  -0.6051   0.0000   0.4863
  -0.300   0.3774   0.01299   0.00642  -0.0887  0.7682  1.0000  -0.6064   0.0000   0.4850
  -0.280   0.3795   0.01301   0.00643  -0.0887  0.7675  1.0000  -0.6076   0.0000   0.4836
  -0.260   0.3816   0.01303   0.00644  -0.0887  0.7669  1.0000  -0.6089   0.0000   0.4823
  -0.240   0.3837   0.01305   0.00645  -0.0887  0.7662  1.0000  -0.6101   0.0000   0.4810
  -0.220   0.3857   0.01306   0.00645  -0.0887  0.7656  1.0000  -0.6114   0.0000   0.4797
  -0.200   0.3878   0.01308   0.00646  -0.0887  0.7650  1.0000  -0.6127   0.0000   0.4784
  -0.180   0.3899   0.01310   0.00647  -0.0886  0.7643  1.0000  -0.6139   0.0000   0.4771
  -0.160   0.3920   0.01311   0.00647  -0.0886  0.7637  1.0000  -0.6152   0.0000   0.4758
  -0.140   0.3941   0.01313   0.00648  -0.0886  0.7631  1.0000  -0.6165   0.0000   0.4745
  -0.120   0.3962   0.01315   0.00649  -0.0886  0.7624  1.0000  -0.6178   0.0000   0.4733
  -0.100   0.3983   0.01316   0.00649  -0.0886  0.7618  1.0000  -0.6190   0.0000   0.4720
  -0.080   0.4004   0.01318   0.00650  -0.0885  0.7612  1.0000  -0.6203   0.0000   0.4708
  -0.060   0.4025   0.01320   0.00651  -0.0885  0.7606  1.0000  -0.6216   0.0000   0.4696
  -0.040   0.4046   0.01321   0.00651  -0.0885  0.7599  1.0000  -0.6229   0.0000   0.4684
  -0.020   0.4067   0.01323   0.00652  -0.0885  0.7593  1.0000  -0.6242   0.0000   0.4672
   0.000   0.4088   0.01324   0.00652  -0.0885  0.7587  1.0000  -0.6255   0.0000   0.4660
   0.020   0.4109   0.01326   0.00653  -0.0884  0.7581  1.0000  -0.6268   0.0000   0.4648
   0.040   0.4130   0.01328   0.00653  -0.0884  0.7575  1.0000  -0.6281   0.0000   0.4636
   0.060   0.4151   0.01329   0.00654  -0.0884  0.7569  1.0000  -0.6294   0.0000   0.4625
   0.080   0.4172   0.01331   0.00654  -0.0884  0.7563  1.0000  -0.6307   0.0000   0.4613
   0.100   0.4194   0.01332   0.00655  -0.0884  0.7557  1.0000  -0.6320   0.0000   0.4602
   0.120   0.4215   0.01333   0.00655  -0.0883  0.7551  1.0000  -0.6333   0.0000   0.4590
   0.140   0.4236   0.01335   0.00656  -0.0883  0.7545  1.0000  -0.6347   0.0000   0.4579
   0.160   0.4257   0.01336   0.00656  -0.0883  0.7539  1.0000  -0.6360   0.0000   0.4568
   0.180   0.4278   0.01338   0.00656  -0.0882  0.7533  1.0000  -0.6373   0.0000   0.4557
   0.200   0.4299   0.01339   0.00656  -0.0882  0.7527  1.0000  -0.6387   0.0000   0.4546
   0.220   0.4321   0.01340   0.00657  -0.0882  0.7522  1.0000  -0.6400   0.0000   0.4535
   0.240   0.4342   0.01341   0.00657  -0.0881  0.7516  1.0000  -0.6414   0.0000   0.4524
   0.260   0.4363   0.01343   0.00657  -0.0881  0.7510  1.0000  -0.6427   0.0000   0.4513
   0.280   0.4384   0.01344   0.00657  -0.0881  0.7504  1.0000  -0.6441   0.0000   0.4502
   0.300   0.4406   0.01345   0.00657  -0.0880  0.7498  1.0000  -0.6454   0.0000   0.4491
   0.320   0.4427   0.01346   0.00657  -0.0880  0.7492  1.0000  -0.6468   0.0000   0.4481
   0.340   0.4448   0.01348   0.00657  -0.0880  0.7486  1.0000  -0.6482   0.0000   0.4470
   0.360   0.4469   0.01349   0.00657  -0.0879  0.7480  1.0000  -0.6495   0.0000   0.4460
   0.380   0.4490   0.01350   0.00657  -0.0879  0.7475  1.0000  -0.6509   0.0000   0.4449
   0.400   0.4512   0.01351   0.00658  -0.0879  0.7469  1.0000  -0.6523   0.0000   0.4439
   0.420   0.4533   0.01353   0.00658  -0.0878  0.7463  1.0000  -0.6536   0.0000   0.4429
   0.440   0.4554   0.01354   0.00658  -0.0878  0.7457  1.0000  -0.6550   0.0000   0.4419
   0.460   0.4575   0.01356   0.00658  -0.0877  0.7452  1.0000  -0.6564   0.0000   0.4409
   0.480   0.4597   0.01357   0.00659  -0.0877  0.7446  1.0000  -0.6578   0.0000   0.4399
   0.500   0.4618   0.01359   0.00659  -0.0876  0.7440  1.0000  -0.6591   0.0000   0.4389
   0.520   0.4639   0.01361   0.00660  -0.0876  0.7434  1.0000  -0.6605   0.0000   0.4379
   0.540   0.4660   0.01363   0.00661  -0.0876  0.7428  1.0000  -0.6620   0.0000   0.4370
   0.560   0.4681   0.01365   0.00662  -0.0875  0.7422  1.0000  -0.6635   0.0000   0.4360
   0.580   0.4702   0.01367   0.00663  -0.0875  0.7416  1.0000  -0.6651   0.0000   0.4351
   0.600   0.4723   0.01370   0.00664  -0.0874  0.7410  1.0000  -0.6666   0.0000   0.4341
   0.620   0.4744   0.01373   0.00666  -0.0874  0.7404  1.0000  -0.6682   0.0000   0.4332
   0.640   0.4765   0.01376   0.00669  -0.0874  0.7397  1.0000  -0.6697   0.0000   0.4323
   0.660   0.4785   0.01380   0.00671  -0.0873  0.7391  1.0000  -0.6712   0.0000   0.4314
   0.680   0.4806   0.01385   0.00674  -0.0873  0.7384  1.0000  -0.6727   0.0000   0.4305
   0.700   0.4827   0.01390   0.00678  -0.0872  0.7377  1.0000  -0.6742   0.0000   0.4297
   0.720   0.4847   0.01396   0.00684  -0.0872  0.7369  1.0000  -0.6756   0.0000   0.4288
   0.740   0.4867   0.01403   0.00690  -0.0872  0.7361  1.0000  -0.6770   0.0000   0.4280
   0.760   0.4887   0.01408   0.00694  -0.0872  0.7354  1.0000  -0.6784   0.0000   0.4272
   0.780   0.4908   0.01410   0.00695  -0.0872  0.7350  1.0000  -0.6799   0.0000   0.4265
   0.800   0.4929   0.01411   0.00696  -0.0872  0.7346  1.0000  -0.6813   0.0000   0.4257
   0.820   0.4949   0.01412   0.00697  -0.0872  0.7341  1.0000  -0.6828   0.0000   0.4249
   0.840   0.4970   0.01413   0.00698  -0.0871  0.7336  1.0000  -0.6843   0.0000   0.4241
   0.860   0.4991   0.01415   0.00699  -0.0871  0.7331  1.0000  -0.6857   0.0000   0.4234
   0.880   0.5012   0.01416   0.00701  -0.0871  0.7326  1.0000  -0.6872   0.0000   0.4226
   0.900   0.5033   0.01418   0.00702  -0.0871  0.7321  1.0000  -0.6886   0.0000   0.4219
   0.920   0.5053   0.01419   0.00704  -0.0871  0.7316  1.0000  -0.6901   0.0000   0.4212
   0.940   0.5074   0.01421   0.00705  -0.0871  0.7311  1.0000  -0.6915   0.0000   0.4204
   0.960   0.5095   0.01423   0.00707  -0.0871  0.7305  1.0000  -0.6929   0.0000   0.4197
   0.980   0.5115   0.01425   0.00709  -0.0871  0.7300  1.0000  -0.6944   0.0000   0.4190
   1.000   0.5136   0.01427   0.00711  -0.0871  0.7295  1.0000  -0.6958   0.0000   0.4183
   1.020   0.5157   0.01429   0.00712  -0.0871  0.7289  1.0000  -0.6973   0.0000   0.4176
   1.040   0.5177   0.01431   0.00714  -0.0871  0.7284  1.0000  -0.6987   0.0000   0.4169
   1.060   0.5198   0.01433   0.00716  -0.0871  0.7279  1.0000  -0.7001   0.0000   0.4162
   1.080   0.5219   0.01436   0.00718  -0.0871  0.7273  1.0000  -0.7016   0.0000   0.4155
   1.100   0.5239   0.01438   0.00720  -0.0871  0.7267  1.0000  -0.7030   0.0000   0.4148
   1.120   0.5260   0.01440   0.00722  -0.0871  0.7262  1.0000  -0.7044   0.0000   0.4141
   1.140   0.5281   0.01442   0.00725  -0.0871  0.7256  1.0000  -0.7059   0.0000   0.4134
   1.160   0.5302   0.01444   0.00727  -0.0871  0.7250  1.0000  -0.7073   0.0000   0.4128
   1.180   0.5322   0.01447   0.00729  -0.0871  0.7245  1.0000  -0.7088   0.0000   0.4121
   1.200   0.5343   0.01449   0.00731  -0.0871  0.7239  1.0000  -0.7102   0.0000   0.4114
   1.220   0.5364   0.01451   0.00733  -0.0870  0.7233  1.0000  -0.7117   0.0000   0.4108
   1.240   0.5385   0.01453   0.00735  -0.0870  0.7227  1.0000  -0.7131   0.0000   0.4101
   1.260   0.5405   0.01456   0.00737  -0.0870  0.7222  1.0000  -0.7146   0.0000   0.4095
   1.280   0.5426   0.01458   0.00739  -0.0870  0.7216  1.0000  -0.7162   0.0000   0.4088
   1.300   0.5447   0.01460   0.00741  -0.0870  0.7210  1.0000  -0.7179   0.0000   0.4082
   1.320   0.5468   0.01462   0.00743  -0.0870  0.7204  1.0000  -0.7196   0.0000   0.4075
   1.340   0.5489   0.01464   0.00744  -0.0870  0.7198  1.0000  -0.7213   0.0000   0.4069
   1.360   0.5510   0.01467   0.00746  -0.0870  0.7193  1.0000  -0.7230   0.0000   0.4062
   1.380   0.5530   0.01469   0.00748  -0.0870  0.7187  1.0000  -0.7247   0.0000   0.4056
   1.400   0.5551   0.01471   0.00750  -0.0870  0.7181  1.0000  -0.7264   0.0000   0.4050
   1.420   0.5572   0.01473   0.00752  -0.0869  0.7175  1.0000  -0.7281   0.0000   0.4043
   1.440   0.5593   0.01475   0.00754  -0.0869  0.7169  1.0000  -0.7298   0.0000   0.4037
   1.460   0.5614   0.01477   0.00756  -0.0869  0.7164  1.0000  -0.7316   0.0000   0.4031
   1.480   0.5635   0.01479   0.00757  -0.0869  0.7158  1.0000  -0.7333   0.0000   0.4025
   1.500   0.5656   0.01481   0.00759  -0.0869  0.7152  1.0000  -0.7350   0.0000   0.4019
   1.520   0.5677   0.01483   0.00761  -0.0869  0.7147  1.0000  -0.7367   0.0000   0.4013
   1.540   0.5698   0.01485   0.00763  -0.0869  0.7141  1.0000  -0.7385   0.0000   0.4007
   1.560   0.5719   0.01487   0.00764  -0.0868  0.7135  1.0000  -0.7402   0.0000   0.4000
   1.580   0.5740   0.01489   0.00766  -0.0868  0.7130  1.0000  -0.7419   0.0000   0.3994
   1.600   0.5761   0.01491   0.00768  -0.0868  0.7124  1.0000  -0.7437   0.0000   0.3988
   1.620   0.5782   0.01493   0.00769  -0.0868  0.7119  1.0000  -0.7454   0.0000   0.3982
   1.640   0.5804   0.01495   0.00771  -0.0868  0.7113  1.0000  -0.7472   0.0000   0.3977
   1.660   0.5825   0.01497   0.00772  -0.0867  0.7108  1.0000  -0.7489   0.0000   0.3971
   1.680   0.5846   0.01499   0.00774  -0.0867  0.7103  1.0000  -0.7507   0.0000   0.3965
   1.700   0.5867   0.01501   0.00775  -0.0867  0.7097  1.0000  -0.7524   0.0000   0.3959
   1.720   0.5888   0.01503   0.00777  -0.0867  0.7092  1.0000  -0.7542   0.0000   0.3953
   1.740   0.5910   0.01504   0.00778  -0.0867  0.7087  1.0000  -0.7560   0.0000   0.3947
   1.760   0.5931   0.01506   0.00780  -0.0867  0.7081  1.0000  -0.7578   0.0000   0.3941
   1.780   0.5952   0.01508   0.00781  -0.0866  0.7076  1.0000  -0.7598   0.0000   0.3936
   1.800   0.5974   0.01510   0.00783  -0.0866  0.7071  1.0000  -0.7618   0.0000   0.3930
   1.820   0.5995   0.01512   0.00784  -0.0866  0.7066  1.0000  -0.7639   0.0000   0.3924
   1.840   0.6016   0.01513   0.00785  -0.0866  0.7061  1.0000  -0.7659   0.0000   0.3919
   1.860   0.6038   0.01515   0.00787  -0.0865  0.7056  1.0000  -0.7680   0.0000   0.3913
   1.880   0.6059   0.01517   0.00788  -0.0865  0.7051  1.0000  -0.7700   0.0000   0.3908
   1.900   0.6080   0.01519   0.00790  -0.0865  0.7046  1.0000  -0.7720   0.0000   0.3902
   1.920   0.6102   0.01520   0.00791  -0.0865  0.7041  1.0000  -0.7741   0.0000   0.3896
   1.940   0.6123   0.01522   0.00792  -0.0865  0.7036  1.0000  -0.7761   0.0000   0.3891
   1.960   0.6145   0.01524   0.00794  -0.0864  0.7031  1.0000  -0.7782   0.0000   0.3885
   1.980   0.6166   0.01526   0.00795  -0.0864  0.7026  1.0000  -0.7803   0.0000   0.3880
   2.000   0.6188   0.01528   0.00797  -0.0864  0.7021  1.0000  -0.7823   0.0000   0.3875
   2.020   0.6209   0.01530   0.00798  -0.0864  0.7016  1.0000  -0.7844   0.0000   0.3869
   2.040   0.6231   0.01531   0.00799  -0.0863  0.7012  1.0000  -0.7864   0.0000   0.3864
   2.060   0.6252   0.01533   0.00801  -0.0863  0.7007  1.0000  -0.7887   0.0000   0.3859
   2.080   0.6274   0.01535   0.00802  -0.0863  0.7002  1.0000  -0.7911   0.0000   0.3853
   2.100   0.6295   0.01537   0.00804  -0.0863  0.6997  1.0000  -0.7934   0.0000   0.3848
   2.120   0.6316   0.01539   0.00805  -0.0862  0.6992  1.0000  -0.7958   0.0000   0.3843
   2.140   0.6338   0.01541   0.00807  -0.0862  0.6987  1.0000  -0.7982   0.0000   0.3837
   2.160   0.6359   0.01543   0.00808  -0.0862  0.6982  1.0000  -0.8006   0.0000   0.3832
   2.180   0.6381   0.01546   0.00810  -0.0861  0.6977  1.0000  -0.8029   0.0000   0.3827
   2.200   0.6402   0.01548   0.00812  -0.0861  0.6971  1.0000  -0.8053   0.0000   0.3822
   2.220   0.6424   0.01551   0.00814  -0.0861  0.6966  1.0000  -0.8077   0.0000   0.3817
   2.240   0.6445   0.01553   0.00816  -0.0860  0.6961  1.0000  -0.8101   0.0000   0.3811
   2.260   0.6466   0.01556   0.00819  -0.0860  0.6955  1.0000  -0.8124   0.0000   0.3806
   2.280   0.6487   0.01560   0.00822  -0.0860  0.6949  1.0000  -0.8147   0.0000   0.3801
   2.300   0.6508   0.01564   0.00825  -0.0859  0.6943  1.0000  -0.8171   0.0000   0.3796
   2.320   0.6528   0.01568   0.00829  -0.0859  0.6937  1.0000  -0.8194   0.0000   0.3792
   2.340   0.6549   0.01573   0.00833  -0.0859  0.6931  1.0000  -0.8217   0.0000   0.3787
   2.360   0.6569   0.01579   0.00839  -0.0858  0.6924  1.0000  -0.8239   0.0000   0.3782
   2.380   0.6588   0.01586   0.00845  -0.0858  0.6917  1.0000  -0.8261   0.0000   0.3777
   2.400   0.6608   0.01594   0.00853  -0.0857  0.6909  1.0000  -0.8283   0.0000   0.3773
   2.420   0.6626   0.01604   0.00863  -0.0857  0.6901  1.0000  -0.8303   0.0000   0.3768
   2.440   0.6644   0.01617   0.00875  -0.0857  0.6891  1.0000  -0.8323   0.0000   0.3764
   2.460   0.6664   0.01618   0.00876  -0.0857  0.6888  1.0000  -0.8349   0.0000   0.3760
   2.480   0.6685   0.01619   0.00878  -0.0857  0.6883  1.0000  -0.8376   0.0000   0.3756
   2.500   0.6706   0.01620   0.00879  -0.0857  0.6879  1.0000  -0.8402   0.0000   0.3752
   2.520   0.6726   0.01621   0.00881  -0.0856  0.6875  1.0000  -0.8428   0.0000   0.3747
   2.540   0.6747   0.01622   0.00882  -0.0856  0.6870  1.0000  -0.8454   0.0000   0.3743
   2.560   0.6768   0.01623   0.00884  -0.0856  0.6865  1.0000  -0.8481   0.0000   0.3739
   2.580   0.6788   0.01625   0.00886  -0.0856  0.6860  1.0000  -0.8507   0.0000   0.3735
   2.600   0.6809   0.01626   0.00888  -0.0856  0.6855  1.0000  -0.8533   0.0000   0.3731
   2.620   0.6829   0.01628   0.00890  -0.0856  0.6850  1.0000  -0.8559   0.0000   0.3727
   2.640   0.6849   0.01630   0.00892  -0.0856  0.6845  1.0000  -0.8585   0.0000   0.3723
   2.660   0.6870   0.01632   0.00895  -0.0856  0.6839  1.0000  -0.8612   0.0000   0.3719
   2.680   0.6890   0.01633   0.00897  -0.0856  0.6834  1.0000  -0.8638   0.0000   0.3715
   2.700   0.6911   0.01636   0.00899  -0.0856  0.6828  1.0000  -0.8664   0.0000   0.3711
   2.720   0.6931   0.01638   0.00902  -0.0855  0.6823  1.0000  -0.8690   0.0000   0.3707
   2.740   0.6951   0.01640   0.00905  -0.0855  0.6817  1.0000  -0.8716   0.0000   0.3703
   2.760   0.6972   0.01642   0.00907  -0.0855  0.6811  1.0000  -0.8742   0.0000   0.3699
   2.780   0.6992   0.01645   0.00910  -0.0855  0.6806  1.0000  -0.8768   0.0000   0.3695
   2.800   0.7012   0.01647   0.00913  -0.0855  0.6800  1.0000  -0.8794   0.0000   0.3691
   2.820   0.7032   0.01650   0.00916  -0.0855  0.6794  1.0000  -0.8825   0.0000   0.3687
   2.840   0.7053   0.01653   0.00920  -0.0855  0.6789  1.0000  -0.8855   0.0000   0.3684
   2.860   0.7073   0.01656   0.00923  -0.0855  0.6783  1.0000  -0.8886   0.0000   0.3680
   2.880   0.7093   0.01659   0.00926  -0.0855  0.6777  1.0000  -0.8916   0.0000   0.3676
   2.900   0.7113   0.01661   0.00928  -0.0855  0.6772  1.0000  -0.8947   0.0000   0.3672
   2.920   0.7135   0.01662   0.00937  -0.0854  0.6767  1.0000  -0.8978   0.0000   0.3668
   2.940   0.7155   0.01664   0.00939  -0.0854  0.6761  1.0000  -0.9008   0.0000   0.3665
   2.960   0.7175   0.01666   0.00942  -0.0854  0.6755  1.0000  -0.9039   0.0000   0.3661
   2.980   0.7196   0.01668   0.00944  -0.0854  0.6749  1.0000  -0.9070   0.0000   0.3657
   3.000   0.7216   0.01671   0.00947  -0.0854  0.6743  1.0000  -0.9101   0.0000   0.3653
   3.020   0.7237   0.01673   0.00949  -0.0854  0.6737  1.0000  -0.9132   0.0000   0.3649
   3.040   0.7257   0.01675   0.00951  -0.0853  0.6730  1.0000  -0.9163   0.0000   0.3646
   3.060   0.7278   0.01677   0.00954  -0.0853  0.6724  1.0000  -0.9194   0.0000   0.3642
   3.080   0.7298   0.01679   0.00956  -0.0853  0.6718  1.0000  -0.9226   0.0000   0.3638
   3.100   0.7319   0.01681   0.00958  -0.0853  0.6711  1.0000  -0.9257   0.0000   0.3634
   3.120   0.7339   0.01683   0.00960  -0.0853  0.6705  1.0000  -0.9289   0.0000   0.3631
   3.140   0.7360   0.01685   0.00962  -0.0852  0.6699  1.0000  -0.9320   0.0000   0.3627
   3.160   0.7380   0.01687   0.00963  -0.0852  0.6692  1.0000  -0.9356   0.0000   0.3623
   3.180   0.7401   0.01688   0.00965  -0.0852  0.6686  1.0000  -0.9394   0.0000   0.3619
   3.200   0.7422   0.01690   0.00967  -0.0851  0.6679  1.0000  -0.9431   0.0000   0.3615
   3.220   0.7443   0.01691   0.00968  -0.0851  0.6673  1.0000  -0.9469   0.0000   0.3612
   3.240   0.7464   0.01693   0.00970  -0.0851  0.6666  1.0000  -0.9507   0.0000   0.3608
   3.260   0.7484   0.01694   0.00971  -0.0851  0.6660  1.0000  -0.9545   0.0000   0.3604
   3.280   0.7505   0.01695   0.00972  -0.0850  0.6653  1.0000  -0.9583   0.0000   0.3600
   3.300   0.7526   0.01697   0.00973  -0.0850  0.6647  1.0000  -0.9621   0.0000   0.3597
   3.320   0.7547   0.01698   0.00974  -0.0850  0.6641  1.0000  -0.9659   0.0000   0.3593
   3.340   0.7569   0.01699   0.00975  -0.0849  0.6634  1.0000  -0.9698   0.0000   0.3589
   3.360   0.7590   0.01700   0.00976  -0.0849  0.6628  1.0000  -0.9736   0.0000   0.3585
   3.380   0.7611   0.01701   0.00977  -0.0848  0.6622  1.0000  -0.9775   0.0000   0.3581
   3.400   0.7632   0.01702   0.00978  -0.0848  0.6615  1.0000  -0.9814   0.0000   0.3578
   3.420   0.7654   0.01703   0.00978  -0.0848  0.6609  1.0000  -0.9853   0.0000   0.3574
   3.440   0.7675   0.01703   0.00979  -0.0847  0.6603  1.0000  -0.9892   0.0000   0.3570
   3.460   0.7696   0.01704   0.00980  -0.0847  0.6597  1.0000  -0.9931   0.0000   0.3567
   3.480   0.7718   0.01705   0.00981  -0.0847  0.6591  1.0000  -0.9970   0.0000   0.3563
   3.500   0.7739   0.01706   0.00981  -0.0846  0.6585  1.0000  -1.0009   0.0000   0.3559
   3.520   0.7761   0.01707   0.00982  -0.0846  0.6579  1.0000  -1.0049   0.0000   0.3555
   3.540   0.7782   0.01707   0.00982  -0.0846  0.6574  1.0000  -1.0088   0.0000   0.3552
   3.560   0.7804   0.01708   0.00983  -0.0845  0.6568  1.0000  -1.0128   0.0000   0.3548
   3.580   0.7826   0.01709   0.00983  -0.0845  0.6562  1.0000  -1.0168   0.0000   0.3544
   3.600   0.7847   0.01709   0.00984  -0.0844  0.6556  1.0000  -1.0208   0.0000   0.3541
   3.620   0.7869   0.01710   0.00984  -0.0844  0.6550  1.0000  -1.0248   0.0000   0.3537
   3.640   0.7891   0.01711   0.00985  -0.0844  0.6545  1.0000  -1.0288   0.0000   0.3533
   3.660   0.7913   0.01712   0.00985  -0.0843  0.6539  1.0000  -1.0328   0.0000   0.3530
   3.680   0.7934   0.01713   0.00986  -0.0843  0.6533  1.0000  -1.0368   0.0000   0.3526
   3.700   0.7956   0.01714   0.00987  -0.0842  0.6528  1.0000  -1.0415   0.0000   0.3523
   3.720   0.7978   0.01715   0.00987  -0.0842  0.6522  1.0000  -1.0464   0.0000   0.3519
   3.740   0.8000   0.01716   0.00988  -0.0842  0.6517  1.0000  -1.0513   0.0000   0.3516
   3.760   0.8021   0.01718   0.00990  -0.0841  0.6511  1.0000  -1.0561   0.0000   0.3512
   3.780   0.8043   0.01719   0.00991  -0.0841  0.6505  1.0000  -1.0610   0.0000   0.3509
   3.800   0.8065   0.01721   0.00992  -0.0841  0.6500  1.0000  -1.0659   0.0000   0.3505
   3.820   0.8086   0.01723   0.00994  -0.0840  0.6494  1.0000  -1.0708   0.0000   0.3502
   3.840   0.8108   0.01725   0.00996  -0.0840  0.6488  1.0000  -1.0756   0.0000   0.3498
   3.860   0.8129   0.01728   0.00998  -0.0839  0.6482  1.0000  -1.0805   0.0000   0.3495
   3.880   0.8150   0.01731   0.01000  -0.0839  0.6476  1.0000  -1.0853   0.0000   0.3491
   3.900   0.8171   0.01735   0.01004  -0.0838  0.6469  1.0000  -1.0901   0.0000   0.3488
   3.920   0.8192   0.01739   0.01008  -0.0838  0.6462  1.0000  -1.0949   0.0000   0.3485
   3.940   0.8212   0.01744   0.01013  -0.0838  0.6455  1.0000  -1.0998   0.0000   0.3481
   3.960   0.8232   0.01751   0.01019  -0.0837  0.6447  1.0000  -1.1054   0.0000   0.3478
   3.980   0.8251   0.01759   0.01027  -0.0837  0.6439  1.0000  -1.1109   0.0000   0.3475
   4.000   0.8270   0.01770   0.01037  -0.0836  0.6429  1.0000  -1.1162   0.0000   0.3472
   4.020   0.8286   0.01784   0.01052  -0.0836  0.6419  1.0000  -1.1212   0.0000   0.3469
   4.040   0.8304   0.01794   0.01061  -0.0835  0.6411  1.0000  -1.1264   0.0000   0.3466
   4.060   0.8325   0.01793   0.01062  -0.0835  0.6406  1.0000  -1.1321   0.0000   0.3464
   4.080   0.8345   0.01793   0.01062  -0.0835  0.6401  1.0000  -1.1378   0.0000   0.3461
   4.100   0.8365   0.01793   0.01063  -0.0835  0.6396  1.0000  -1.1434   0.0000   0.3458
   4.120   0.8385   0.01793   0.01064  -0.0834  0.6391  1.0000  -1.1491   0.0000   0.3455
   4.140   0.8406   0.01793   0.01065  -0.0834  0.6386  1.0000  -1.1548   0.0000   0.3452
   4.160   0.8426   0.01794   0.01067  -0.0834  0.6380  1.0000  -1.1604   0.0000   0.3449
   4.180   0.8446   0.01794   0.01068  -0.0834  0.6374  1.0000  -1.1661   0.0000   0.3446
   4.200   0.8466   0.01795   0.01070  -0.0833  0.6367  1.0000  -1.1717   0.0000   0.3443
   4.220   0.8486   0.01796   0.01071  -0.0833  0.6361  1.0000  -1.1774   0.0000   0.3441
   4.240   0.8506   0.01797   0.01073  -0.0833  0.6354  1.0000  -1.1831   0.0000   0.3438
   4.260   0.8526   0.01798   0.01075  -0.0833  0.6348  1.0000  -1.1887   0.0000   0.3435
   4.280   0.8545   0.01799   0.01077  -0.0832  0.6341  1.0000  -1.1944   0.0000   0.3432
   4.300   0.8565   0.01800   0.01079  -0.0832  0.6333  1.0000  -1.2000   0.0000   0.3429
   4.320   0.8585   0.01802   0.01082  -0.0832  0.6326  1.0000  -1.2056   0.0000   0.3426
   4.340   0.8604   0.01803   0.01084  -0.0831  0.6319  1.0000  -1.2113   0.0000   0.3424
   4.360   0.8624   0.01805   0.01086  -0.0831  0.6312  1.0000  -1.2169   0.0000   0.3421
   4.380   0.8644   0.01807   0.01089  -0.0831  0.6304  1.0000  -1.2226   0.0000   0.3418
   4.400   0.8664   0.01808   0.01091  -0.0830  0.6296  1.0000  -1.2283   0.0000   0.3415
   4.420   0.8684   0.01809   0.01093  -0.0830  0.6289  1.0000  -1.2340   0.0000   0.3413
   4.440   0.8703   0.01811   0.01095  -0.0830  0.6281  1.0000  -1.2397   0.0000   0.3410
   4.460   0.8723   0.01812   0.01097  -0.0829  0.6273  1.0000  -1.2455   0.0000   0.3407
   4.480   0.8744   0.01813   0.01098  -0.0829  0.6265  1.0000  -1.2512   0.0000   0.3404
   4.500   0.8764   0.01814   0.01100  -0.0828  0.6256  1.0000  -1.2571   0.0000   0.3401
   4.520   0.8784   0.01815   0.01101  -0.0828  0.6248  1.0000  -1.2629   0.0000   0.3398
   4.540   0.8804   0.01815   0.01103  -0.0828  0.6240  1.0000  -1.2687   0.0000   0.3395
   4.560   0.8825   0.01816   0.01104  -0.0827  0.6232  1.0000  -1.2746   0.0000   0.3393
   4.580   0.8845   0.01816   0.01104  -0.0827  0.6224  1.0000  -1.2851   0.0000   0.3390
   4.600   0.8866   0.01817   0.01105  -0.0826  0.6215  1.0000  -1.2960   0.0000   0.3387
   4.620   0.8887   0.01817   0.01106  -0.0826  0.6207  1.0000  -1.3069   0.0000   0.3384
   4.640   0.8907   0.01817   0.01106  -0.0825  0.6199  1.0000  -1.3179   0.0000   0.3381
   4.660   0.8928   0.01817   0.01107  -0.0825  0.6191  1.0000  -1.3290   0.0000   0.3378
   4.680   0.8949   0.01817   0.01107  -0.0824  0.6183  1.0000  -1.3402   0.0000   0.3375
   4.700   0.8971   0.01817   0.01107  -0.0824  0.6175  1.0000  -1.3514   0.0000   0.3372
   4.720   0.8992   0.01817   0.01107  -0.0823  0.6167  1.0000  -1.3627   0.0000   0.3369
   4.740   0.9013   0.01816   0.01107  -0.0823  0.6160  1.0000  -1.3741   0.0000   0.3366
   4.760   0.9034   0.01816   0.01107  -0.0822  0.6152  1.0000  -1.3855   0.0000   0.3364
   4.780   0.9056   0.01816   0.01107  -0.0822  0.6145  1.0000  -1.3970   0.0000   0.3361
   4.800   0.9077   0.01816   0.01107  -0.0821  0.6137  1.0000  -1.4085   0.0000   0.3358
   4.820   0.9099   0.01815   0.01107  -0.0821  0.6130  1.0000  -1.4201   0.0000   0.3355
   4.840   0.9121   0.01815   0.01107  -0.0821  0.6122  1.0000  -1.4319   0.0000   0.3352
   4.860   0.9142   0.01814   0.01106  -0.0820  0.6115  1.0000  -1.4437   0.0000   0.3349
   4.880   0.9164   0.01812   0.01104  -0.0819  0.6107  1.0000  -1.4556   0.0000   0.3346
   4.900   0.9187   0.01810   0.01102  -0.0819  0.6099  1.0000  -1.4678   0.0000   0.3343
   4.920   0.9210   0.01806   0.01098  -0.0818  0.6090  1.0000  -1.4802   0.0000   0.3340
   4.940   0.9233   0.01801   0.01092  -0.0817  0.6080  1.0000  -1.4929   0.0000   0.3336
   4.960   0.9256   0.01796   0.01085  -0.0816  0.6069  1.0000  -1.5058   0.0000   0.3333
   4.980   0.9280   0.01789   0.01078  -0.0815  0.6057  1.0000  -1.5247   0.0000   0.3329
   5.000   0.9304   0.01781   0.01069  -0.0814  0.6045  1.0000  -1.5450   0.0000   0.3325
   5.020   0.9328   0.01774   0.01059  -0.0813  0.6032  1.0000  -1.5656   0.0000   0.3322
   5.040   0.9352   0.01766   0.01050  -0.0811  0.6018  1.0000  -1.5862   0.0000   0.3318
   5.060   0.9375   0.01759   0.01041  -0.0810  0.6002  1.0000  -1.6067   0.0000   0.3314
   5.080   0.9398   0.01754   0.01033  -0.0808  0.5986  1.0000  -1.6271   0.0000   0.3310
   5.100   0.9421   0.01753   0.01029  -0.0807  0.5967  1.0000  -1.6475   0.0000   0.3306
   5.120   0.9442   0.01757   0.01030  -0.0806  0.5945  1.0000  -1.6670   0.0000   0.3302
   5.140   0.9461   0.01765   0.01036  -0.0805  0.5923  1.0000  -1.6850   0.0000   0.3299
   5.160   0.9480   0.01754   0.01027  -0.0803  0.5911  1.0000  -1.7032   0.0000   0.3296
   5.180   0.9498   0.01744   0.01018  -0.0802  0.5896  1.0000  -1.7213   0.0000   0.3293
   5.200   0.9516   0.01734   0.01009  -0.0800  0.5879  1.0000  -1.7395   0.0000   0.3289
   5.220   0.9535   0.01725   0.01001  -0.0799  0.5860  1.0000  -1.7579   0.0000   0.3286
   5.240   0.9554   0.01715   0.00992  -0.0797  0.5840  1.0000  -1.7765   0.0000   0.3282
   5.260   0.9573   0.01706   0.00983  -0.0796  0.5818  1.0000  -1.7953   0.0000   0.3279
   5.280   0.9592   0.01696   0.00973  -0.0794  0.5795  1.0000  -1.8145   0.0000   0.3275
   5.300   0.9612   0.01685   0.00962  -0.0793  0.5770  1.0000  -1.8341   0.0000   0.3271
   5.320   0.9632   0.01674   0.00950  -0.0791  0.5744  1.0000  -1.8541   0.0000   0.3268
   5.340   0.9653   0.01662   0.00937  -0.0789  0.5717  1.0000  -1.8745   0.0000   0.3264
   5.360   0.9674   0.01650   0.00923  -0.0787  0.5690  1.0000  -1.8951   0.0000   0.3260
   5.380   0.9696   0.01637   0.00909  -0.0786  0.5663  1.0000  -1.9160   0.0000   0.3256
   5.400   0.9718   0.01625   0.00894  -0.0784  0.5636  1.0000  -1.9371   0.0000   0.3252
   5.420   0.9739   0.01612   0.00879  -0.0782  0.5609  1.0000  -1.9582   0.0000   0.3248
   5.440   0.9760   0.01600   0.00864  -0.0780  0.5582  1.0000  -1.9794   0.0000   0.3244
   5.460   0.9783   0.01589   0.00849  -0.0778  0.5554  1.0000  -2.0010   0.0000   0.3240
   5.480   0.9805   0.01580   0.00835  -0.0776  0.5526  1.0000  -2.0226   0.0000   0.3236
   5.500   0.9827   0.01574   0.00824  -0.0775  0.5498  1.0000  -2.0440   0.0000   0.3232
   5.520   0.9849   0.01571   0.00815  -0.0773  0.5468  1.0000  -2.0653   0.0000   0.3229
   5.540   0.9871   0.01572   0.00811  -0.0772  0.5437  1.0000  -2.0860   0.0000   0.3226
   5.560   0.9887   0.01566   0.00808  -0.0771  0.5420  1.0000  -2.1039   0.0000   0.3223
   5.580   0.9904   0.01562   0.00806  -0.0770  0.5400  1.0000  -2.1220   0.0000   0.3220
   5.600   0.9921   0.01558   0.00804  -0.0769  0.5379  1.0000  -2.1403   0.0000   0.3218
   5.620   0.9939   0.01554   0.00802  -0.0768  0.5357  1.0000  -2.1588   0.0000   0.3215
   5.640   0.9957   0.01551   0.00800  -0.0767  0.5334  1.0000  -2.1775   0.0000   0.3212
   5.660   0.9976   0.01549   0.00799  -0.0766  0.5313  1.0000  -2.1964   0.0000   0.3210
   5.680   0.9995   0.01547   0.00798  -0.0765  0.5292  1.0000  -2.2155   0.0000   0.3207
   5.700   1.0014   0.01546   0.00797  -0.0764  0.5273  1.0000  -2.2347   0.0000   0.3205
   5.720   1.0034   0.01545   0.00797  -0.0764  0.5256  1.0000  -2.2539   0.0000   0.3202
   5.740   1.0054   0.01544   0.00797  -0.0763  0.5241  1.0000  -2.2733   0.0000   0.3200
   5.760   1.0073   0.01544   0.00797  -0.0762  0.5226  1.0000  -2.2928   0.0000   0.3198
   5.780   1.0093   0.01543   0.00797  -0.0762  0.5210  1.0000  -2.3123   0.0000   0.3195
   5.800   1.0113   0.01542   0.00797  -0.0761  0.5194  1.0000  -2.3318   0.0000   0.3193
   5.820   1.0133   0.01542   0.00796  -0.0761  0.5178  1.0000  -2.3515   0.0000   0.3190
   5.840   1.0153   0.01541   0.00795  -0.0760  0.5162  1.0000  -2.3713   0.0000   0.3188
   5.860   1.0174   0.01540   0.00794  -0.0759  0.5145  1.0000  -2.3911   0.0000   0.3186
   5.880   1.0194   0.01539   0.00793  -0.0758  0.5128  1.0000  -2.4110   0.0000   0.3183
   5.900   1.0214   0.01538   0.00791  -0.0758  0.5111  1.0000  -2.4308   0.0000   0.3181
   5.920   1.0234   0.01538   0.00789  -0.0757  0.5094  1.0000  -2.4507   0.0000   0.3178
   5.940   1.0254   0.01537   0.00787  -0.0756  0.5077  1.0000  -2.4706   0.0000   0.3176
   5.960   1.0274   0.01536   0.00785  -0.0755  0.5060  1.0000  -2.4905   0.0000   0.3173
   5.980   1.0294   0.01536   0.00783  -0.0754  0.5043  1.0000  -2.5104   0.0000   0.3171
   6.000   1.0314   0.01536   0.00781  -0.0754  0.5025  1.0000  -2.5303   0.0000   0.3168
   6.020   1.0334   0.01536   0.00780  -0.0753  0.5007  1.0000  -2.5502   0.0000   0.3166
   6.040   1.0353   0.01536   0.00778  -0.0752  0.4989  1.0000  -2.5700   0.0000   0.3163
   6.060   1.0373   0.01537   0.00777  -0.0751  0.4971  1.0000  -2.5897   0.0000   0.3161
   6.080   1.0393   0.01539   0.00776  -0.0750  0.4952  1.0000  -2.6094   0.0000   0.3159
   6.100   1.0412   0.01540   0.00779  -0.0750  0.4938  1.0000  -2.6282   0.0000   0.3157
   6.120   1.0431   0.01540   0.00783  -0.0749  0.4922  1.0000  -2.6470   0.0000   0.3155
   6.140   1.0450   0.01541   0.00786  -0.0749  0.4905  1.0000  -2.6659   0.0000   0.3152
   6.160   1.0469   0.01541   0.00788  -0.0748  0.4887  1.0000  -2.6847   0.0000   0.3150
   6.180   1.0488   0.01542   0.00791  -0.0748  0.4867  1.0000  -2.7035   0.0000   0.3148
   6.200   1.0507   0.01542   0.00793  -0.0747  0.4846  1.0000  -2.7224   0.0000   0.3146
   6.220   1.0526   0.01543   0.00795  -0.0746  0.4824  1.0000  -2.7412   0.0000   0.3144
   6.240   1.0544   0.01543   0.00797  -0.0746  0.4801  1.0000  -2.7599   0.0000   0.3142
   6.260   1.0563   0.01544   0.00798  -0.0745  0.4778  1.0000  -2.7786   0.0000   0.3140
   6.280   1.0582   0.01544   0.00799  -0.0744  0.4753  1.0000  -2.7973   0.0000   0.3138
   6.300   1.0601   0.01545   0.00799  -0.0743  0.4728  1.0000  -2.8159   0.0000   0.3135
   6.320   1.0619   0.01545   0.00800  -0.0743  0.4702  1.0000  -2.8345   0.0000   0.3133
   6.340   1.0638   0.01546   0.00799  -0.0742  0.4676  1.0000  -2.8530   0.0000   0.3131
   6.360   1.0656   0.01546   0.00799  -0.0741  0.4649  1.0000  -2.8713   0.0000   0.3128
   6.380   1.0674   0.01547   0.00798  -0.0740  0.4622  1.0000  -2.8896   0.0000   0.3126
   6.400   1.0692   0.01547   0.00798  -0.0739  0.4595  1.0000  -2.9077   0.0000   0.3123
   6.420   1.0710   0.01548   0.00797  -0.0737  0.4567  1.0000  -2.9256   0.0000   0.3121
   6.440   1.0728   0.01549   0.00796  -0.0736  0.4540  1.0000  -2.9433   0.0000   0.3118
   6.460   1.0745   0.01551   0.00794  -0.0735  0.4511  1.0000  -2.9607   0.0000   0.3116
   6.480   1.0761   0.01553   0.00792  -0.0733  0.4476  1.0000  -2.9777   0.0000   0.3113
   6.500   1.0779   0.01554   0.00796  -0.0733  0.4439  1.0000  -2.9946   0.0000   0.3111
   6.520   1.0795   0.01556   0.00799  -0.0732  0.4387  1.0000  -3.0111   0.0000   0.3109
   6.540   1.0810   0.01557   0.00800  -0.0730  0.4319  1.0000  -3.0270   0.0000   0.3106
   6.560   1.0823   0.01560   0.00799  -0.0729  0.4236  1.0000  -3.0421   0.0000   0.3104
   6.580   1.0833   0.01563   0.00796  -0.0726  0.4143  1.0000  -3.0562   0.0000   0.3100
   6.600   1.0840   0.01568   0.00791  -0.0723  0.4050  1.0000  -3.0691   0.0000   0.3097
   6.620   1.0849   0.01574   0.00791  -0.0721  0.3958  1.0000  -3.0825   0.0000   0.3094
   6.640   1.0861   0.01580   0.00793  -0.0719  0.3843  1.0000  -3.0962   0.0000   0.3091
   6.660   1.0868   0.01587   0.00794  -0.0717  0.3722  1.0000  -3.1085   0.0000   0.3089
   6.680   1.0873   0.01597   0.00795  -0.0714  0.3617  1.0000  -3.1198   0.0000   0.3085
   6.700   1.0880   0.01607   0.00797  -0.0712  0.3540  1.0000  -3.1313   0.0000   0.3083
   6.720   1.1028   0.01600   0.00952  -0.0736  0.4590  1.0000  -3.4017   0.0000   0.3097
   6.740   1.1048   0.01603   0.00956  -0.0736  0.4579  1.0000  -3.4300   0.0000   0.3095
   6.760   1.1067   0.01605   0.00960  -0.0735  0.4566  1.0000  -3.4571   0.0000   0.3093
   6.780   1.1086   0.01607   0.00962  -0.0734  0.4551  1.0000  -3.4835   0.0000   0.3091
   6.800   1.1105   0.01609   0.00965  -0.0734  0.4535  1.0000  -3.5092   0.0000   0.3089
   6.820   1.1124   0.01611   0.00966  -0.0733  0.4517  1.0000  -3.5344   0.0000   0.3086
   6.840   1.1143   0.01613   0.00968  -0.0732  0.4499  1.0000  -3.5591   0.0000   0.3084
   6.860   1.1161   0.01616   0.00970  -0.0731  0.4480  1.0000  -3.5833   0.0000   0.3082
   6.880   1.1180   0.01618   0.00975  -0.0730  0.4462  1.0000  -3.6070   0.0000   0.3080
   6.900   1.1198   0.01620   0.00980  -0.0730  0.4444  1.0000  -3.6304   0.0000   0.3078
   6.920   1.1217   0.01622   0.00985  -0.0729  0.4424  1.0000  -3.6535   0.0000   0.3077
   6.940   1.1235   0.01624   0.00990  -0.0729  0.4401  1.0000  -3.6763   0.0000   0.3075
   6.960   1.1253   0.01626   0.00995  -0.0728  0.4376  1.0000  -3.6989   0.0000   0.3073
   6.980   1.1271   0.01628   0.00999  -0.0727  0.4349  1.0000  -3.7214   0.0000   0.3071
   7.000   1.1289   0.01630   0.01002  -0.0727  0.4320  1.0000  -3.7435   0.0000   0.3069
   7.020   1.1306   0.01632   0.01005  -0.0726  0.4288  1.0000  -3.7654   0.0000   0.3067
   7.040   1.1323   0.01634   0.01008  -0.0725  0.4254  1.0000  -3.7870   0.0000   0.3065
   7.060   1.1340   0.01636   0.01009  -0.0724  0.4217  1.0000  -3.8083   0.0000   0.3063
   7.080   1.1356   0.01638   0.01010  -0.0722  0.4179  1.0000  -3.8292   0.0000   0.3060
   7.100   1.1371   0.01640   0.01011  -0.0721  0.4139  1.0000  -3.8497   0.0000   0.3058
   7.120   1.1386   0.01643   0.01011  -0.0719  0.4098  1.0000  -3.8698   0.0000   0.3055
   7.140   1.1399   0.01646   0.01010  -0.0718  0.4056  1.0000  -3.8893   0.0000   0.3053
   7.160   1.1412   0.01650   0.01009  -0.0716  0.4013  1.0000  -3.9082   0.0000   0.3050
   7.180   1.1429   0.01653   0.01014  -0.0715  0.3971  1.0000  -3.9280   0.0000   0.3048
   7.200   1.1445   0.01656   0.01018  -0.0714  0.3917  1.0000  -3.9474   0.0000   0.3046
   7.220   1.1459   0.01660   0.01022  -0.0712  0.3852  1.0000  -3.9657   0.0000   0.3044
   7.240   1.1471   0.01665   0.01024  -0.0711  0.3774  1.0000  -3.9828   0.0000   0.3042
   7.260   1.1479   0.01672   0.01025  -0.0708  0.3688  1.0000  -3.9984   0.0000   0.3039
   7.280   1.1484   0.01680   0.01025  -0.0706  0.3601  1.0000  -4.0121   0.0000   0.3036
   7.300   1.1490   0.01689   0.01027  -0.0703  0.3514  1.0000  -4.0259   0.0000   0.3033
   7.320   1.1499   0.01698   0.01031  -0.0701  0.3401  1.0000  -4.0403   0.0000   0.3030
   7.340   1.1502   0.01709   0.01035  -0.0698  0.3279  1.0000  -4.0522   0.0000   0.3028
   7.360   1.1501   0.01724   0.01040  -0.0695  0.3167  1.0000  -4.0617   0.0000   0.3025
   7.380   1.1502   0.01739   0.01045  -0.0692  0.3063  1.0000  -4.0714   0.0000   0.3022
   7.400   1.1506   0.01753   0.01052  -0.0690  0.2945  1.0000  -4.0820   0.0000   0.3019
   7.420   1.1507   0.01768   0.01060  -0.0687  0.2838  1.0000  -4.0912   0.0000   0.3017
   7.440   1.1507   0.01786   0.01069  -0.0684  0.2743  1.0000  -4.0989   0.0000   0.3014
   7.460   1.1507   0.01803   0.01079  -0.0682  0.2656  1.0000  -4.1063   0.0000   0.3011
   7.480   1.1512   0.01818   0.01088  -0.0680  0.2551  1.0000  -4.1143   0.0000   0.3009
   7.500   1.1513   0.01836   0.01099  -0.0677  0.2441  1.0000  -4.1202   0.0000   0.3006
   7.520   1.1510   0.01857   0.01112  -0.0674  0.2338  1.0000  -4.1241   0.0000   0.3004
   7.540   1.1507   0.01878   0.01125  -0.0671  0.2240  1.0000  -4.1273   0.0000   0.3001
   7.560   1.1508   0.01897   0.01138  -0.0669  0.2120  1.0000  -4.1298   0.0000   0.2999
   7.580   1.1503   0.01921   0.01152  -0.0666  0.2000  1.0000  -4.1303   0.0000   0.2996
   7.600   1.1494   0.01948   0.01169  -0.0662  0.1895  1.0000  -4.1290   0.0000   0.2993
   7.620   1.1490   0.01972   0.01185  -0.0659  0.1752  1.0000  -4.1249   0.0000   0.2991
   7.640   1.1479   0.02002   0.01204  -0.0656  0.1611  1.0000  -4.1193   0.0000   0.2988
   7.660   1.1467   0.02034   0.01224  -0.0652  0.1472  1.0000  -4.1112   0.0000   0.2985
   7.680   1.1453   0.02068   0.01245  -0.0648  0.1302  1.0000  -4.0999   0.0000   0.2982
   7.700   1.1436   0.02105   0.01268  -0.0644  0.1152  1.0000  -4.0874   0.0000   0.2979
   7.720   1.1416   0.02144   0.01292  -0.0639  0.0980  1.0000  -4.0718   0.0000   0.2976
   7.740   1.1394   0.02186   0.01319  -0.0634  0.0819  1.0000  -4.0518   0.0000   0.2972
   7.760   1.1373   0.02228   0.01346  -0.0630  0.0690  1.0000  -4.0339   0.0000   0.2969
   7.780   1.1351   0.02270   0.01377  -0.0624  0.0575  1.0000  -4.0024   0.0000   0.2965
   7.800   1.1335   0.02307   0.01403  -0.0619  0.0510  1.0000  -3.9804   0.0000   0.2961
   7.820   1.1314   0.02349   0.01439  -0.0613  0.0452  1.0000  -3.9454   0.0000   0.2957
   7.840   1.1316   0.02369   0.01458  -0.0610  0.0430  1.0000  -3.9302   0.0000   0.2953
   7.860   1.1320   0.02386   0.01477  -0.0607  0.0414  1.0000  -3.9224   0.0000   0.2951
   7.880   1.1326   0.02402   0.01495  -0.0605  0.0402  1.0000  -3.9177   0.0000   0.2948
   7.900   1.1331   0.02417   0.01511  -0.0602  0.0391  1.0000  -3.9153   0.0000   0.2945
   7.920   1.1337   0.02432   0.01528  -0.0600  0.0382  1.0000  -3.9144   0.0000   0.2943
   7.940   1.1343   0.02447   0.01544  -0.0598  0.0374  1.0000  -3.9147   0.0000   0.2940
   7.960   1.1349   0.02461   0.01559  -0.0595  0.0367  1.0000  -3.9159   0.0000   0.2938
   7.980   1.1354   0.02476   0.01575  -0.0593  0.0361  1.0000  -3.9177   0.0000   0.2935
   8.000   1.1360   0.02490   0.01590  -0.0591  0.0355  1.0000  -3.9198   0.0000   0.2933
   8.020   1.1365   0.02505   0.01605  -0.0589  0.0350  1.0000  -3.9222   0.0000   0.2930
   8.040   1.1370   0.02519   0.01621  -0.0586  0.0345  1.0000  -3.9249   0.0000   0.2928
   8.060   1.1375   0.02534   0.01636  -0.0584  0.0341  1.0000  -3.9277   0.0000   0.2925
   8.080   1.1380   0.02548   0.01651  -0.0582  0.0337  1.0000  -3.9306   0.0000   0.2923
   8.100   1.1384   0.02563   0.01667  -0.0580  0.0333  1.0000  -3.9335   0.0000   0.2920
   8.120   1.1388   0.02578   0.01683  -0.0577  0.0329  1.0000  -3.9363   0.0000   0.2918
   8.140   1.1392   0.02593   0.01699  -0.0575  0.0326  1.0000  -3.9391   0.0000   0.2915
   8.160   1.1396   0.02608   0.01716  -0.0572  0.0323  1.0000  -3.9417   0.0000   0.2913
   8.180   1.1399   0.02623   0.01732  -0.0570  0.0320  1.0000  -3.9443   0.0000   0.2910
   8.200   1.1402   0.02639   0.01749  -0.0568  0.0317  1.0000  -3.9467   0.0000   0.2908
   8.220   1.1404   0.02654   0.01766  -0.0565  0.0315  1.0000  -3.9491   0.0000   0.2905
   8.240   1.1406   0.02670   0.01783  -0.0562  0.0312  1.0000  -3.9513   0.0000   0.2902
   8.260   1.1408   0.02686   0.01800  -0.0560  0.0310  1.0000  -3.9534   0.0000   0.2900
   8.280   1.1410   0.02702   0.01818  -0.0557  0.0308  1.0000  -3.9555   0.0000   0.2897
   8.300   1.1411   0.02718   0.01835  -0.0555  0.0306  1.0000  -3.9575   0.0000   0.2895
   8.320   1.1412   0.02734   0.01853  -0.0552  0.0304  1.0000  -3.9594   0.0000   0.2892
   8.340   1.1412   0.02750   0.01870  -0.0549  0.0302  1.0000  -3.9612   0.0000   0.2889
   8.360   1.1411   0.02766   0.01888  -0.0546  0.0301  1.0000  -3.9630   0.0000   0.2887
   8.380   1.1410   0.02782   0.01905  -0.0543  0.0299  1.0000  -3.9646   0.0000   0.2884
   8.400   1.1409   0.02798   0.01922  -0.0540  0.0298  1.0000  -3.9662   0.0000   0.2881
   8.420   1.1408   0.02814   0.01939  -0.0537  0.0296  1.0000  -3.9677   0.0000   0.2878
   8.440   1.1406   0.02830   0.01957  -0.0534  0.0295  1.0000  -3.9693   0.0000   0.2875
   8.460   1.1405   0.02847   0.01975  -0.0532  0.0294  1.0000  -3.9709   0.0000   0.2872
   8.480   1.1404   0.02863   0.01993  -0.0529  0.0293  1.0000  -3.9724   0.0000   0.2870
   8.500   1.1403   0.02880   0.02011  -0.0526  0.0292  1.0000  -3.9740   0.0000   0.2867
   8.520   1.1402   0.02897   0.02030  -0.0523  0.0291  1.0000  -3.9755   0.0000   0.2864
   8.540   1.1401   0.02915   0.02048  -0.0520  0.0290  1.0000  -3.9770   0.0000   0.2862
   8.560   1.1401   0.02932   0.02067  -0.0517  0.0289  1.0000  -3.9786   0.0000   0.2859
   8.580   1.1400   0.02950   0.02086  -0.0515  0.0288  1.0000  -3.9801   0.0000   0.2856
   8.600   1.1399   0.02968   0.02106  -0.0512  0.0287  1.0000  -3.9817   0.0000   0.2854
   8.620   1.1399   0.02986   0.02125  -0.0509  0.0286  1.0000  -3.9834   0.0000   0.2851
   8.640   1.1399   0.03005   0.02145  -0.0507  0.0285  1.0000  -3.9850   0.0000   0.2849
   8.660   1.1400   0.03024   0.02165  -0.0504  0.0284  1.0000  -3.9868   0.0000   0.2846
   8.680   1.1401   0.03042   0.02185  -0.0502  0.0284  1.0000  -3.9886   0.0000   0.2843
   8.700   1.1403   0.03061   0.02205  -0.0499  0.0283  1.0000  -3.9905   0.0000   0.2841
   8.720   1.1405   0.03081   0.02225  -0.0497  0.0282  1.0000  -3.9925   0.0000   0.2839
   8.740   1.1407   0.03100   0.02246  -0.0494  0.0281  1.0000  -3.9945   0.0000   0.2836
   8.760   1.1409   0.03120   0.02267  -0.0492  0.0281  1.0000  -3.9966   0.0000   0.2834
   8.780   1.1413   0.03140   0.02288  -0.0490  0.0280  1.0000  -3.9988   0.0000   0.2831
   8.800   1.1416   0.03161   0.02310  -0.0488  0.0279  1.0000  -4.0011   0.0000   0.2829
   8.820   1.1421   0.03181   0.02331  -0.0485  0.0279  1.0000  -4.0036   0.0000   0.2827
   8.840   1.1427   0.03202   0.02353  -0.0483  0.0278  1.0000  -4.0062   0.0000   0.2824
   8.860   1.1433   0.03223   0.02376  -0.0481  0.0278  1.0000  -4.0089   0.0000   0.2822
   8.880   1.1441   0.03245   0.02398  -0.0479  0.0277  1.0000  -4.0118   0.0000   0.2820
   8.900   1.1449   0.03267   0.02421  -0.0478  0.0276  1.0000  -4.0150   0.0000   0.2818
   8.920   1.1459   0.03289   0.02445  -0.0476  0.0276  1.0000  -4.0183   0.0000   0.2816
   8.940   1.1469   0.03312   0.02469  -0.0474  0.0275  1.0000  -4.0217   0.0000   0.2814
   8.960   1.1480   0.03335   0.02493  -0.0473  0.0275  1.0000  -4.0254   0.0000   0.2812
   8.980   1.1493   0.03359   0.02518  -0.0471  0.0275  1.0000  -4.0294   0.0000   0.2810
   9.000   1.1507   0.03383   0.02544  -0.0470  0.0274  1.0000  -4.0337   0.0000   0.2808
   9.020   1.1523   0.03408   0.02570  -0.0469  0.0274  1.0000  -4.0383   0.0000   0.2806
   9.040   1.1539   0.03433   0.02596  -0.0468  0.0273  1.0000  -4.0431   0.0000   0.2804
   9.060   1.1557   0.03459   0.02623  -0.0467  0.0273  1.0000  -4.0483   0.0000   0.2803
   9.080   1.1575   0.03483   0.02643  -0.0466  0.0273  1.0000  -4.0547   0.0000   0.2801
   9.100   1.1592   0.03504   0.02666  -0.0465  0.0273  1.0000  -4.0623   0.0000   0.2799
   9.120   1.1611   0.03525   0.02689  -0.0464  0.0273  1.0000  -4.0699   0.0000   0.2798
   9.140   1.1630   0.03547   0.02712  -0.0464  0.0273  1.0000  -4.0776   0.0000   0.2796
   9.160   1.1650   0.03570   0.02737  -0.0463  0.0272  1.0000  -4.0854   0.0000   0.2795
   9.180   1.1671   0.03594   0.02762  -0.0463  0.0272  1.0000  -4.0932   0.0000   0.2793
   9.200   1.1692   0.03618   0.02788  -0.0462  0.0272  1.0000  -4.1011   0.0000   0.2792
   9.220   1.1715   0.03644   0.02814  -0.0462  0.0272  1.0000  -4.1090   0.0000   0.2791
   9.240   1.1737   0.03670   0.02842  -0.0462  0.0272  1.0000  -4.1167   0.0000   0.2790
   9.260   1.1760   0.03697   0.02871  -0.0462  0.0272  1.0000  -4.1243   0.0000   0.2789
   9.280   1.1784   0.03725   0.02901  -0.0462  0.0272  1.0000  -4.1319   0.0000   0.2787
   9.300   1.1808   0.03754   0.02932  -0.0462  0.0272  1.0000  -4.1394   0.0000   0.2786
   9.320   1.1833   0.03785   0.02964  -0.0462  0.0272  1.0000  -4.1468   0.0000   0.2786
   9.340   1.1859   0.03817   0.02998  -0.0462  0.0272  1.0000  -4.1541   0.0000   0.2785
   9.360   1.1886   0.03850   0.03033  -0.0463  0.0273  1.0000  -4.1612   0.0000   0.2784
   9.380   1.1911   0.03884   0.03069  -0.0463  0.0273  1.0000  -4.1678   0.0000   0.2783
   9.400   1.1936   0.03919   0.03107  -0.0463  0.0273  1.0000  -4.1739   0.0000   0.2782
   9.480   1.2017   0.04026   0.03227  -0.0462  0.0274  1.0000  -4.2053   0.0000   0.2778
   9.500   1.2035   0.04049   0.03252  -0.0462  0.0274  1.0000  -4.2136   0.0000   0.2777
   9.520   1.2053   0.04072   0.03277  -0.0461  0.0274  1.0000  -4.2220   0.0000   0.2775
   9.540   1.2070   0.04095   0.03302  -0.0461  0.0274  1.0000  -4.2305   0.0000   0.2774
   9.560   1.2087   0.04117   0.03326  -0.0460  0.0275  1.0000  -4.2389   0.0000   0.2773
   9.580   1.2104   0.04139   0.03350  -0.0459  0.0275  1.0000  -4.2474   0.0000   0.2771
   9.600   1.2120   0.04161   0.03374  -0.0459  0.0275  1.0000  -4.2560   0.0000   0.2770
   9.620   1.2136   0.04182   0.03397  -0.0458  0.0276  1.0000  -4.2645   0.0000   0.2769
   9.640   1.2152   0.04203   0.03420  -0.0457  0.0276  1.0000  -4.2731   0.0000   0.2767
   9.660   1.2167   0.04224   0.03442  -0.0456  0.0276  1.0000  -4.2818   0.0000   0.2766
   9.680   1.2182   0.04245   0.03464  -0.0455  0.0277  1.0000  -4.2904   0.0000   0.2764
   9.700   1.2197   0.04265   0.03486  -0.0455  0.0277  1.0000  -4.2991   0.0000   0.2763
   9.720   1.2212   0.04285   0.03508  -0.0454  0.0277  1.0000  -4.3077   0.0000   0.2762
   9.740   1.2226   0.04304   0.03530  -0.0453  0.0278  1.0000  -4.3163   0.0000   0.2760
   9.760   1.2240   0.04324   0.03551  -0.0452  0.0278  1.0000  -4.3249   0.0000   0.2759
   9.780   1.2253   0.04343   0.03572  -0.0451  0.0279  1.0000  -4.3334   0.0000   0.2757
   9.800   1.2267   0.04362   0.03593  -0.0450  0.0279  1.0000  -4.3420   0.0000   0.2756
   9.820   1.2280   0.04381   0.03614  -0.0449  0.0279  1.0000  -4.3506   0.0000   0.2754
   9.840   1.2293   0.04400   0.03634  -0.0448  0.0280  1.0000  -4.3592   0.0000   0.2753
   9.860   1.2306   0.04418   0.03655  -0.0447  0.0280  1.0000  -4.3677   0.0000   0.2751
   9.880   1.2319   0.04437   0.03675  -0.0446  0.0281  1.0000  -4.3762   0.0000   0.2750
   9.900   1.2331   0.04455   0.03695  -0.0444  0.0281  1.0000  -4.3847   0.0000   0.2748
   9.920   1.2344   0.04473   0.03715  -0.0443  0.0282  1.0000  -4.3932   0.0000   0.2746
   9.940   1.2356   0.04491   0.03735  -0.0442  0.0282  1.0000  -4.4016   0.0000   0.2745
   9.960   1.2368   0.04509   0.03755  -0.0441  0.0283  1.0000  -4.4099   0.0000   0.2743
   9.980   1.2379   0.04527   0.03774  -0.0440  0.0283  1.0000  -4.4182   0.0000   0.2742
  10.000   1.2391   0.04545   0.03794  -0.0439  0.0284  1.0000  -4.4264   0.0000   0.2740


